VHNQIURBCCNWDN-PPMNOVJINA-N
Actelion Java MolfileCreator 2.0

  0  0  0  0  0  0              0 V3000
M  V30 BEGIN CTAB
M  V30 COUNTS 15 15 0 0 0
M  V30 BEGIN ATOM
M  V30 1 N 27.8596 4.5054 65.2336 0
M  V30 2 C 26.9889 4.1648 64.2481 0
M  V30 3 C 28.2707 5.788 65.2533 0
M  V30 4 N 26.6031 2.92 64.1916 0
M  V30 5 C 26.4904 5.078 63.3099 0
M  V30 6 N 29.1569 6.0971 66.1392 0
M  V30 7 C 27.818 6.7656 64.3438 0
M  V30 8 C 26.9137 6.3834 63.3764 0
M  V30 9 H 27.04 2.4017 64.9266 0
M  V30 10 H 25.9683 2.8018 63.4281 0
M  V30 11 H 25.7887 4.7632 62.5517 0
M  V30 12 H 29.3878 5.2867 66.6772 0
M  V30 13 H 29.3837 7.0679 66.0598 0
M  V30 14 H 28.1696 7.785 64.404 0
M  V30 15 H 26.5384 7.1098 62.6707 0
M  V30 END ATOM
M  V30 BEGIN BOND
M  V30 1 2 1 2
M  V30 2 1 1 3
M  V30 3 1 2 4
M  V30 4 1 2 5
M  V30 5 1 3 6
M  V30 6 2 3 7
M  V30 7 2 5 8
M  V30 8 1 7 8
M  V30 9 1 4 9
M  V30 10 1 4 10
M  V30 11 1 5 11
M  V30 12 1 6 12
M  V30 13 1 6 13
M  V30 14 1 7 14
M  V30 15 1 8 15
M  V30 END BOND
M  V30 END CTAB
M  END
>  <Molecule Name>
VHNQIURBCCNWDN-PPMNOVJINA-N

>  <hs_clash>
0.0

>  <hs_total>
275.8073580037829

>  <Total Molweight>
109.132

>  <cLogP>
0.0069

>  <H-Acceptors>
3

>  <H-Donors>
2

>  <Polar Surface Area>
64.93

>  <Non-H Atoms>
8

>  <sp3-Atoms>
0

$$$$
BAXOFTOLAUCFNW-BGGKNDAXNA-N
Actelion Java MolfileCreator 2.0

  0  0  0  0  0  0              0 V3000
M  V30 BEGIN CTAB
M  V30 COUNTS 15 16 0 0 0
M  V30 BEGIN ATOM
M  V30 1 N 28.3485 4.1514 65.655 0
M  V30 2 N 27.2924 3.5614 65.035 0
M  V30 3 C 28.3685 5.4274 65.247 0
M  V30 4 C 26.6313 4.4444 64.2202 0
M  V30 5 C 27.3133 5.6644 64.3322 0
M  V30 6 C 25.5293 4.3237 63.3834 0
M  V30 7 C 26.8482 6.7525 63.5974 0
M  V30 8 C 25.0871 5.4157 62.6635 0
M  V30 9 C 25.7461 6.6265 62.7705 0
M  V30 10 H 27.0304 2.6043 65.1578 0
M  V30 11 H 29.0851 6.1681 65.5693 0
M  V30 12 H 25.0185 3.3762 63.296 0
M  V30 13 H 27.3528 7.7042 63.6739 0
M  V30 14 H 24.2269 5.3242 62.0172 0
M  V30 15 H 25.3985 7.4788 62.2056 0
M  V30 END ATOM
M  V30 BEGIN BOND
M  V30 1 1 1 2
M  V30 2 2 1 3
M  V30 3 1 2 4
M  V30 4 1 3 5
M  V30 5 1 4 6
M  V30 6 1 5 7
M  V30 7 2 6 8
M  V30 8 2 7 9
M  V30 9 2 4 5
M  V30 10 1 8 9
M  V30 11 1 2 10
M  V30 12 1 3 11
M  V30 13 1 6 12
M  V30 14 1 7 13
M  V30 15 1 8 14
M  V30 16 1 9 15
M  V30 END BOND
M  V30 END CTAB
M  END
>  <Molecule Name>
BAXOFTOLAUCFNW-BGGKNDAXNA-N

>  <hs_clash>
0.0

>  <hs_total>
218.53814198278195

>  <Total Molweight>
118.139

>  <cLogP>
0.8701

>  <H-Acceptors>
2

>  <H-Donors>
1

>  <Polar Surface Area>
28.68

>  <Non-H Atoms>
9

>  <sp3-Atoms>
0

$$$$
HFTLYNKTSANXFA-UHFFFAOYNA-N
Actelion Java MolfileCreator 2.0

  0  0  0  0  0  0              0 V3000
M  V30 BEGIN CTAB
M  V30 COUNTS 26 27 0 0 0
M  V30 BEGIN ATOM
M  V30 1 Cl 26.554 9.0924 62.4846 0
M  V30 2 C 27.1879 7.7411 63.3555 0
M  V30 3 N 26.5534 6.5851 63.1508 0
M  V30 4 C 28.289 7.908 64.1905 0
M  V30 5 C 26.9944 5.5129 63.8257 0
M  V30 6 C 28.7559 6.7889 64.8746 0
M  V30 7 N 28.0724 5.5921 64.6828 0
M  V30 8 C 26.5585 4.2077 63.8566 0
M  V30 9 N 29.8762 6.8549 65.7216 0
M  V30 10 N 28.3737 4.3695 65.2139 0
M  V30 11 C 25.4585 3.6981 63.1146 0
M  V30 12 C 27.4227 3.5274 64.7017 0
M  V30 13 C 30.6935 8.0622 65.814 0
M  V30 14 N 24.5788 3.289 62.5119 0
M  V30 15 C 31.5581 8.0178 67.0639 0
M  V30 16 C 31.5295 8.2219 64.5474 0
M  V30 17 H 28.7642 8.8714 64.3037 0
M  V30 18 H 30.2609 5.9975 66.063 0
M  V30 19 H 27.3544 2.4732 64.9262 0
M  V30 20 H 30.0279 8.9349 65.8924 0
M  V30 21 H 30.9167 7.9026 67.9504 0
M  V30 22 H 32.2512 7.1663 66.9999 0
M  V30 23 H 32.132 8.9526 67.1461 0
M  V30 24 H 30.866 8.2496 63.6706 0
M  V30 25 H 32.1031 9.1589 64.6027 0
M  V30 26 H 32.2223 7.3725 64.4563 0
M  V30 END ATOM
M  V30 BEGIN BOND
M  V30 1 1 1 2
M  V30 2 2 2 3
M  V30 3 1 2 4
M  V30 4 1 3 5
M  V30 5 2 4 6
M  V30 6 1 5 7
M  V30 7 2 5 8
M  V30 8 1 6 9
M  V30 9 1 7 10
M  V30 10 1 8 11
M  V30 11 1 8 12
M  V30 12 1 9 13
M  V30 13 3 11 14
M  V30 14 1 13 15
M  V30 15 1 13 16
M  V30 16 1 6 7
M  V30 17 2 10 12
M  V30 18 1 4 17
M  V30 19 1 9 18
M  V30 20 1 12 19
M  V30 21 1 13 20
M  V30 22 1 15 21
M  V30 23 1 15 22
M  V30 24 1 15 23
M  V30 25 1 16 24
M  V30 26 1 16 25
M  V30 27 1 16 26
M  V30 END BOND
M  V30 END CTAB
M  END
>  <Molecule Name>
HFTLYNKTSANXFA-UHFFFAOYNA-N

>  <hs_clash>
0.0

>  <hs_total>
208.15842080666766

>  <Total Molweight>
235.677

>  <cLogP>
0.8653

>  <H-Acceptors>
5

>  <H-Donors>
1

>  <Polar Surface Area>
66.01

>  <Non-H Atoms>
16

>  <sp3-Atoms>
3

$$$$
LVNXHNRYPADEAD-UHFFFAOYNA-N
Actelion Java MolfileCreator 2.0

  0  0  0  0  0  0              0 V3000
M  V30 BEGIN CTAB
M  V30 COUNTS 32 34 0 0 0
M  V30 BEGIN ATOM
M  V30 1 Cl 26.0236 8.773 62.4437 0
M  V30 2 C 26.7022 7.6004 63.2004 0
M  V30 3 N 26.1884 6.3644 63.0787 0
M  V30 4 C 27.8624 7.7949 63.9621 0
M  V30 5 C 26.7522 5.319 63.7749 0
M  V30 6 C 28.4708 6.6956 64.5794 0
M  V30 7 N 27.8728 5.4812 64.5036 0
M  V30 8 C 26.3788 3.9931 63.8316 0
M  V30 9 N 29.5905 6.8198 65.3294 0
M  V30 10 N 28.2525 4.3334 65.0177 0
M  V30 11 C 27.3581 3.3714 64.6168 0
M  V30 12 C 30.5298 7.8123 65.1805 0
M  V30 13 C 31.2672 8.2278 66.3323 0
M  V30 14 C 30.7887 8.3546 63.907 0
M  V30 15 C 32.2508 9.1846 66.1734 0
M  V30 16 C 31.7692 9.3084 63.7343 0
M  V30 17 C 32.4547 9.7286 64.8889 0
M  V30 18 S 33.706 10.9168 64.6892 0
M  V30 19 O 34.7866 10.3509 63.9183 0
M  V30 20 O 34.2099 11.3283 66.0165 0
M  V30 21 C 33.1146 12.4842 64.0254 0
M  V30 22 H 28.2832 8.7835 64.0722 0
M  V30 23 H 25.5173 3.5333 63.3706 0
M  V30 24 H 29.975 5.9448 65.6234 0
M  V30 25 H 27.4018 2.3209 64.8633 0
M  V30 26 H 31.0601 7.8041 67.3038 0
M  V30 27 H 30.213 8.0203 63.0569 0
M  V30 28 H 32.8487 9.508 67.0128 0
M  V30 29 H 31.9999 9.7131 62.76 0
M  V30 30 H 32.7028 12.3245 63.0183 0
M  V30 31 H 32.3301 12.8881 64.6826 0
M  V30 32 H 33.9501 13.1979 63.9712 0
M  V30 END ATOM
M  V30 BEGIN BOND
M  V30 1 1 1 2
M  V30 2 2 2 3
M  V30 3 1 2 4
M  V30 4 1 3 5
M  V30 5 2 4 6
M  V30 6 1 5 7
M  V30 7 2 5 8
M  V30 8 1 6 9
M  V30 9 1 7 10
M  V30 10 1 8 11
M  V30 11 1 9 12
M  V30 12 2 12 13
M  V30 13 1 12 14
M  V30 14 1 13 15
M  V30 15 2 14 16
M  V30 16 2 15 17
M  V30 17 1 17 18
M  V30 18 2 18 19
M  V30 19 2 18 20
M  V30 20 1 18 21
M  V30 21 1 6 7
M  V30 22 2 10 11
M  V30 23 1 16 17
M  V30 24 1 4 22
M  V30 25 1 8 23
M  V30 26 1 9 24
M  V30 27 1 11 25
M  V30 28 1 13 26
M  V30 29 1 14 27
M  V30 30 1 15 28
M  V30 31 1 16 29
M  V30 32 1 21 30
M  V30 33 1 21 31
M  V30 34 1 21 32
M  V30 END BOND
M  V30 END CTAB
M  END
>  <Molecule Name>
LVNXHNRYPADEAD-UHFFFAOYNA-N

>  <hs_clash>
6.0

>  <hs_total>
200.71067781799758

>  <Total Molweight>
322.775

>  <cLogP>
1.1495

>  <H-Acceptors>
6

>  <H-Donors>
1

>  <Polar Surface Area>
84.74

>  <Non-H Atoms>
21

>  <sp3-Atoms>
2

$$$$
DWAAUQSYDGHPKE-YGPBECBDNA-N
Actelion Java MolfileCreator 2.0

  0  0  0  0  0  0              0 V3000
M  V30 BEGIN CTAB
M  V30 COUNTS 30 31 0 0 0
M  V30 BEGIN ATOM
M  V30 1 O 28.4775 4.3109 65.9564 0
M  V30 2 C 27.6841 4.536 65.0672 0
M  V30 3 N 26.8775 3.5094 64.6257 0
M  V30 4 C 27.5844 5.7952 64.4791 0
M  V30 5 C 28.7258 6.6748 64.3426 0
M  V30 6 C 26.3096 6.2287 63.9871 0
M  V30 7 N 29.8912 6.2932 64.787 0
M  V30 8 C 28.5435 7.9633 63.709 0
M  V30 9 C 26.1549 7.5021 63.3697 0
M  V30 10 C 31.1745 7.0124 64.5211 0
M  V30 11 C 27.2702 8.3678 63.2304 0
M  V30 12 C 31.4097 8.1148 65.5265 0
M  V30 13 C 31.2908 7.897 66.9177 0
M  V30 14 C 31.7575 9.4173 65.0908 0
M  V30 15 N 31.4953 8.8866 67.8569 0
M  V30 16 C 31.9755 10.4549 66.0343 0
M  V30 17 C 31.8334 10.1408 67.4023 0
M  V30 18 H 26.9534 2.6015 65.0376 0
M  V30 19 H 26.216 3.6726 63.8937 0
M  V30 20 H 25.4526 5.5787 64.0862 0
M  V30 21 H 29.8922 5.6333 65.5382 0
M  V30 22 H 29.3885 8.6265 63.5991 0
M  V30 23 H 25.1855 7.8103 63.0064 0
M  V30 24 H 32.0052 6.2938 64.5782 0
M  V30 25 H 31.1367 7.4504 63.513 0
M  V30 26 H 27.1505 9.3331 62.7607 0
M  V30 27 H 31.0268 6.9082 67.2625 0
M  V30 28 H 31.8568 9.622 64.0353 0
M  V30 29 H 32.2418 11.4519 65.7156 0
M  V30 30 H 31.9978 10.9233 68.1285 0
M  V30 END ATOM
M  V30 BEGIN BOND
M  V30 1 2 1 2
M  V30 2 1 2 3
M  V30 3 1 2 4
M  V30 4 2 4 5
M  V30 5 1 4 6
M  V30 6 1 5 7
M  V30 7 1 5 8
M  V30 8 2 6 9
M  V30 9 1 7 10
M  V30 10 2 8 11
M  V30 11 1 10 12
M  V30 12 2 12 13
M  V30 13 1 12 14
M  V30 14 1 13 15
M  V30 15 2 14 16
M  V30 16 2 15 17
M  V30 17 1 9 11
M  V30 18 1 16 17
M  V30 19 1 3 18
M  V30 20 1 3 19
M  V30 21 1 6 20
M  V30 22 1 7 21
M  V30 23 1 8 22
M  V30 24 1 9 23
M  V30 25 1 10 24
M  V30 26 1 10 25
M  V30 27 1 11 26
M  V30 28 1 13 27
M  V30 29 1 14 28
M  V30 30 1 16 29
M  V30 31 1 17 30
M  V30 END BOND
M  V30 END CTAB
M  END
>  <Molecule Name>
DWAAUQSYDGHPKE-YGPBECBDNA-N

>  <hs_clash>
0.0

>  <hs_total>
199.26533000704163

>  <Total Molweight>
227.266

>  <cLogP>
0.8111

>  <H-Acceptors>
4

>  <H-Donors>
2

>  <Polar Surface Area>
68.01

>  <Non-H Atoms>
17

>  <sp3-Atoms>
1

$$$$
ZAIYYXVHGBMLEC-UHFFFAOYNA-N
Actelion Java MolfileCreator 2.0

  0  0  0  0  0  0              0 V3000
M  V30 BEGIN CTAB
M  V30 COUNTS 38 41 0 0 0
M  V30 BEGIN ATOM
M  V30 1 F 26.5351 7.3314 60.0888 0
M  V30 2 C 26.4874 8.5756 60.7211 0
M  V30 3 C 26.8184 8.7466 62.0916 0
M  V30 4 C 26.131 9.7127 59.9495 0
M  V30 5 C 27.1921 7.5985 62.9238 0
M  V30 6 C 26.7659 10.0439 62.6462 0
M  V30 7 C 26.0583 10.974 60.5418 0
M  V30 8 N 26.4139 6.528 62.8832 0
M  V30 9 C 28.4032 7.6802 63.6609 0
M  V30 10 C 26.3844 11.1543 61.8831 0
M  V30 11 C 26.8233 5.482 63.6176 0
M  V30 12 C 28.7785 6.6062 64.4211 0
M  V30 13 N 27.9568 5.5347 64.4394 0
M  V30 14 C 26.2806 4.2072 63.8024 0
M  V30 15 N 29.9246 6.502 65.1277 0
M  V30 16 N 28.1842 4.3668 65.0734 0
M  V30 17 C 27.1794 3.5528 64.6867 0
M  V30 18 C 31.0823 7.279 64.7394 0
M  V30 19 C 31.3184 8.3907 65.6858 0
M  V30 20 C 31.2406 9.7095 65.247 0
M  V30 21 C 31.5691 8.1321 67.0271 0
M  V30 22 C 31.4777 10.7412 66.1852 0
M  V30 23 C 31.8078 9.2159 67.8902 0
M  V30 24 N 31.7428 10.5064 67.4907 0
M  V30 25 H 25.9143 9.6008 58.8975 0
M  V30 26 H 27.0268 10.1837 63.6849 0
M  V30 27 H 25.7448 11.8225 59.9515 0
M  V30 28 H 29.0139 8.57 63.6226 0
M  V30 29 H 26.3436 12.137 62.3293 0
M  V30 30 H 25.3762 3.8076 63.3683 0
M  V30 31 H 30.0491 5.7179 65.7356 0
M  V30 32 H 27.0716 2.5282 65.0103 0
M  V30 33 H 31.9661 6.6247 64.7265 0
M  V30 34 H 30.9168 7.6924 63.7338 0
M  V30 35 H 31.0055 9.9387 64.2184 0
M  V30 36 H 31.5806 7.1185 67.3997 0
M  V30 37 H 31.4453 11.765 65.843 0
M  V30 38 H 32.0542 9.0082 68.9211 0
M  V30 END ATOM
M  V30 BEGIN BOND
M  V30 1 1 1 2
M  V30 2 2 2 3
M  V30 3 1 2 4
M  V30 4 1 3 5
M  V30 5 1 3 6
M  V30 6 2 4 7
M  V30 7 2 5 8
M  V30 8 1 5 9
M  V30 9 2 6 10
M  V30 10 1 8 11
M  V30 11 2 9 12
M  V30 12 1 11 13
M  V30 13 2 11 14
M  V30 14 1 12 15
M  V30 15 1 13 16
M  V30 16 1 14 17
M  V30 17 1 15 18
M  V30 18 1 18 19
M  V30 19 2 19 20
M  V30 20 1 19 21
M  V30 21 1 20 22
M  V30 22 2 21 23
M  V30 23 2 22 24
M  V30 24 1 7 10
M  V30 25 1 12 13
M  V30 26 2 16 17
M  V30 27 1 23 24
M  V30 28 1 4 25
M  V30 29 1 6 26
M  V30 30 1 7 27
M  V30 31 1 9 28
M  V30 32 1 10 29
M  V30 33 1 14 30
M  V30 34 1 15 31
M  V30 35 1 17 32
M  V30 36 1 18 33
M  V30 37 1 18 34
M  V30 38 1 20 35
M  V30 39 1 21 36
M  V30 40 1 22 37
M  V30 41 1 23 38
M  V30 END BOND
M  V30 END CTAB
M  END
>  <Molecule Name>
ZAIYYXVHGBMLEC-UHFFFAOYNA-N

>  <hs_clash>
0.0

>  <hs_total>
195.0964930383749

>  <Total Molweight>
319.342

>  <cLogP>
1.8289

>  <H-Acceptors>
5

>  <H-Donors>
1

>  <Polar Surface Area>
55.11

>  <Non-H Atoms>
24

>  <sp3-Atoms>
1

$$$$
HEWIOOOQJSCDJT-FJVOVDAXNA-N
Actelion Java MolfileCreator 2.0

  0  0  0  0  0  0              0 V3000
M  V30 BEGIN CTAB
M  V30 COUNTS 56 58 0 0 0
M  V30 BEGIN ATOM
M  V30 1 F 23.4811 5.1158 60.9084 0
M  V30 2 C 24.2897 4.5276 61.7732 0
M  V30 3 C 25.3325 5.2919 62.3296 0
M  V30 4 C 24.1324 3.1887 62.1417 0
M  V30 5 C 26.204 4.71 63.2615 0
M  V30 6 C 25.0168 2.6136 63.0724 0
M  V30 7 C 26.0739 3.404 63.638 0
M  V30 8 C 27.3386 5.268 63.9663 0
M  V30 9 N 27.1157 3.131 64.5779 0
M  V30 10 C 27.8734 4.2536 64.7808 0
M  V30 11 C 27.7419 6.7398 63.7397 0
M  V30 12 O 28.9605 4.3462 65.6263 0 CHG=-1
M  V30 13 C 29.0285 7.2754 64.3516 0
M  V30 14 N 29.7764 6.7523 65.4023 0
M  V30 15 C 29.6429 8.4584 63.9142 0
M  V30 16 C 30.8498 7.5771 65.6288 0
M  V30 17 C 30.7892 8.6578 64.6936 0
M  V30 18 C 29.148 9.3382 62.7957 0
M  V30 19 C 31.9194 7.3524 66.7053 0
M  V30 20 C 31.7656 9.8529 64.5677 0
M  V30 21 O 33.0062 9.6683 64.6855 0
M  V30 22 N 31.252 11.2025 64.3294 0
M  V30 23 C 32.1597 12.3006 64.2265 0
M  V30 24 C 31.9616 13.3483 63.1574 0
M  V30 25 N 31.7031 12.9273 61.7767 0 CHG=1
M  V30 26 C 32.7955 13.2775 60.9292 0
M  V30 27 C 30.4791 13.4928 61.2796 0
M  V30 28 C 32.9231 14.737 60.4824 0
M  V30 29 C 29.7018 14.4392 62.1338 0
M  V30 30 H 25.4613 6.3241 62.0395 0
M  V30 31 H 23.3354 2.5985 61.7141 0
M  V30 32 H 24.9007 1.5795 63.3611 0
M  V30 33 H 27.2965 2.2563 65.0272 0
M  V30 34 H 27.1128 7.3889 63.1485 0
M  V30 35 H 29.5602 5.9097 65.9091 0
M  V30 36 H 28.1379 9.703 63.0349 0
M  V30 37 H 29.8278 10.1946 62.6748 0
M  V30 38 H 29.1169 8.7597 61.8609 0
M  V30 39 H 31.8591 6.4917 67.355 0
M  V30 40 H 32.7324 8.0548 66.8137 0
M  V30 41 H 30.2678 11.3559 64.2388 0
M  V30 42 H 32.1341 12.8252 65.1933 0
M  V30 43 H 33.16 11.8713 64.0688 0
M  V30 44 H 31.107 13.9668 63.4691 0
M  V30 45 H 32.8727 13.9643 63.1397 0
M  V30 46 H 31.61 11.9319 61.7737 0
M  V30 47 H 33.7206 13.0179 61.4649 0
M  V30 48 H 32.7134 12.6635 60.0204 0
M  V30 49 H 30.729 14.0309 60.3534 0
M  V30 50 H 29.8104 12.6512 61.0459 0
M  V30 51 H 33.8078 14.848 59.8385 0
M  V30 52 H 32.0226 15.0288 59.9218 0
M  V30 53 H 33.0299 15.3832 61.3664 0
M  V30 54 H 28.8014 14.7673 61.5934 0
M  V30 55 H 29.4061 13.9343 63.0653 0
M  V30 56 H 30.3247 15.3139 62.3726 0
M  V30 END ATOM
M  V30 BEGIN BOND
M  V30 1 1 1 2
M  V30 2 2 2 3
M  V30 3 1 2 4
M  V30 4 1 3 5
M  V30 5 2 4 6
M  V30 6 2 5 7
M  V30 7 1 5 8
M  V30 8 1 7 9
M  V30 9 2 8 10
M  V30 10 1 8 11
M  V30 11 1 10 12
M  V30 12 2 11 13
M  V30 13 1 13 14
M  V30 14 1 13 15
M  V30 15 1 14 16
M  V30 16 2 15 17
M  V30 17 1 15 18
M  V30 18 2 16 19
M  V30 19 1 17 20
M  V30 20 2 20 21
M  V30 21 1 20 22
M  V30 22 1 22 23
M  V30 23 1 23 24
M  V30 24 1 24 25
M  V30 25 1 25 26
M  V30 26 1 25 27
M  V30 27 1 26 28
M  V30 28 1 27 29
M  V30 29 1 6 7
M  V30 30 1 9 10
M  V30 31 1 16 17
M  V30 32 1 3 30
M  V30 33 1 4 31
M  V30 34 1 6 32
M  V30 35 1 9 33
M  V30 36 1 11 34
M  V30 37 1 14 35
M  V30 38 1 18 36
M  V30 39 1 18 37
M  V30 40 1 18 38
M  V30 41 1 19 39
M  V30 42 1 19 40
M  V30 43 1 22 41
M  V30 44 1 23 42
M  V30 45 1 23 43
M  V30 46 1 24 44
M  V30 47 1 24 45
M  V30 48 1 25 46
M  V30 49 1 26 47
M  V30 50 1 26 48
M  V30 51 1 27 49
M  V30 52 1 27 50
M  V30 53 1 28 51
M  V30 54 1 28 52
M  V30 55 1 28 53
M  V30 56 1 29 54
M  V30 57 1 29 55
M  V30 58 1 29 56
M  V30 END BOND
M  V30 END CTAB
M  END
>  <Molecule Name>
HEWIOOOQJSCDJT-FJVOVDAXNA-N

>  <hs_clash>
47.0

>  <hs_total>
194.76629821987012

>  <Total Molweight>
398.480

>  <cLogP>
-0.1372

>  <H-Acceptors>
6

>  <H-Donors>
4

>  <Polar Surface Area>
84.42

>  <Non-H Atoms>
29

>  <sp3-Atoms>
10

$$$$
BLWZOYNPKKUDEW-IRWMESMANA-M
Actelion Java MolfileCreator 2.0

  0  0  0  0  0  0              0 V3000
M  V30 BEGIN CTAB
M  V30 COUNTS 31 33 0 0 0
M  V30 BEGIN ATOM
M  V30 1 O 24.6847 11.2134 57.0707 0
M  V30 2 C 24.754 10.6114 58.1458 0
M  V30 3 O 23.8376 9.8607 58.5242 0 CHG=-1
M  V30 4 C 25.9647 10.8516 59.0036 0
M  V30 5 C 25.9563 10.3698 60.4338 0
M  V30 6 C 26.0404 9.0188 60.705 0
M  V30 7 C 25.9443 11.2545 61.4816 0
M  V30 8 C 26.0937 8.5942 62.0145 0
M  V30 9 C 25.9885 10.8047 62.7812 0
M  V30 10 O 26.0295 7.2164 62.1605 0
M  V30 11 C 26.0853 9.4675 63.0615 0
M  V30 12 C 26.7539 6.5099 63.0805 0
M  V30 13 N 27.6743 7.0359 63.8826 0
M  V30 14 C 26.4405 5.177 63.1568 0
M  V30 15 C 28.3136 6.2057 64.7501 0
M  V30 16 N 25.5947 4.3731 62.4427 0
M  V30 17 C 27.1562 4.4072 64.0934 0
M  V30 18 N 28.0937 4.8926 64.9148 0
M  V30 19 N 29.2409 6.7595 65.5499 0
M  V30 20 C 25.7419 3.1989 63.0008 0
M  V30 21 N 26.7058 3.1346 63.9679 0
M  V30 22 H 26.1296 11.9388 59.0311 0
M  V30 23 H 26.8147 10.364 58.5044 0
M  V30 24 H 26.0641 8.3014 59.898 0
M  V30 25 H 25.8995 12.3155 61.2848 0
M  V30 26 H 25.9462 11.5169 63.5925 0
M  V30 27 H 26.1527 9.116 64.0807 0
M  V30 28 H 29.3041 7.7393 65.3593 0
M  V30 29 H 29.638 6.055 66.1382 0
M  V30 30 H 25.1457 2.3439 62.7183 0
M  V30 31 H 27.0116 2.3267 64.4717 0
M  V30 END ATOM
M  V30 BEGIN BOND
M  V30 1 2 1 2
M  V30 2 1 2 3
M  V30 3 1 2 4
M  V30 4 1 4 5
M  V30 5 2 5 6
M  V30 6 1 5 7
M  V30 7 1 6 8
M  V30 8 2 7 9
M  V30 9 1 8 10
M  V30 10 2 8 11
M  V30 11 1 10 12
M  V30 12 2 12 13
M  V30 13 1 12 14
M  V30 14 1 13 15
M  V30 15 1 14 16
M  V30 16 2 14 17
M  V30 17 2 15 18
M  V30 18 1 15 19
M  V30 19 2 16 20
M  V30 20 1 17 21
M  V30 21 1 9 11
M  V30 22 1 17 18
M  V30 23 1 20 21
M  V30 24 1 4 22
M  V30 25 1 4 23
M  V30 26 1 6 24
M  V30 27 1 7 25
M  V30 28 1 9 26
M  V30 29 1 11 27
M  V30 30 1 19 28
M  V30 31 1 19 29
M  V30 32 1 20 30
M  V30 33 1 21 31
M  V30 END BOND
M  V30 END CTAB
M  END
>  <Molecule Name>
BLWZOYNPKKUDEW-IRWMESMANA-M

>  <hs_clash>
0.0

>  <hs_total>
190.04514271221143

>  <Total Molweight>
284.254

>  <cLogP>
-1.3451

>  <H-Acceptors>
8

>  <H-Donors>
2

>  <Polar Surface Area>
129.84

>  <Non-H Atoms>
21

>  <sp3-Atoms>
3

$$$$
OPRAIFVPXXVXDL-LNNLXFCONA-N
Actelion Java MolfileCreator 2.0

  0  0  0  0  0  0              0 V3000
M  V30 BEGIN CTAB
M  V30 COUNTS 45 48 0 0 0
M  V30 BEGIN ATOM
M  V30 1 Cl 26.2297 11.0161 63.6891 0
M  V30 2 C 26.2702 10.3715 62.0996 0
M  V30 3 C 26.4755 9.0034 61.8437 0
M  V30 4 C 26.0975 11.3152 61.074 0
M  V30 5 N 26.5639 7.9623 62.8307 0
M  V30 6 C 26.5099 8.6322 60.5079 0
M  V30 7 C 26.1147 10.9362 59.7352 0
M  V30 8 N 25.6196 6.9766 63.0277 0
M  V30 9 C 27.677 7.699 63.625 0
M  V30 10 Cl 26.8818 6.9614 60.1628 0
M  V30 11 C 26.331 9.5708 59.4611 0
M  V30 12 Cl 25.803 12.1598 58.4629 0
M  V30 13 C 26.129 6.0894 63.911 0
M  V30 14 N 28.8342 8.396 63.7367 0
M  V30 15 C 27.4753 6.4818 64.3289 0
M  V30 16 C 25.2951 4.8833 64.2285 0
M  V30 17 C 29.7858 7.883 64.5439 0
M  V30 18 C 28.4946 6.008 65.1399 0
M  V30 19 C 25.6555 3.7144 63.3141 0
M  V30 20 N 29.6609 6.7097 65.2336 0
M  V30 21 C 31.0943 8.6625 64.6191 0
M  V30 22 O 28.3415 4.9273 65.716 0
M  V30 23 C 31.2788 9.4782 65.8894 0
M  V30 24 C 30.941 10.8539 65.9377 0
M  V30 25 C 31.7725 8.8305 67.0347 0
M  V30 26 C 31.0711 11.5528 67.1735 0
M  V30 27 C 31.9005 9.5181 68.2538 0
M  V30 28 O 30.7171 12.893 67.3072 0
M  V30 29 C 31.5303 10.8805 68.319 0
M  V30 30 O 31.5613 11.5504 69.5357 0
M  V30 31 H 25.9481 12.3543 61.3291 0
M  V30 32 H 26.3611 9.2337 58.4357 0
M  V30 33 H 25.47 4.5895 65.2742 0
M  V30 34 H 24.2326 5.1337 64.091 0
M  V30 35 H 25.0312 2.8447 63.5669 0
M  V30 36 H 25.4786 4.0006 62.2667 0
M  V30 37 H 26.716 3.4565 63.4498 0
M  V30 38 H 30.413 6.3704 65.7985 0
M  V30 39 H 31.9246 7.9447 64.55 0
M  V30 40 H 31.1322 9.3511 63.7621 0
M  V30 41 H 30.5904 11.3645 65.0529 0
M  V30 42 H 32.0569 7.7904 66.9775 0
M  V30 43 H 32.2772 9.0117 69.1302 0
M  V30 44 H 30.0758 13.1196 66.6441 0
M  V30 45 H 31.298 10.9583 70.2305 0
M  V30 END ATOM
M  V30 BEGIN BOND
M  V30 1 1 1 2
M  V30 2 2 2 3
M  V30 3 1 2 4
M  V30 4 1 3 5
M  V30 5 1 3 6
M  V30 6 2 4 7
M  V30 7 1 5 8
M  V30 8 1 5 9
M  V30 9 1 6 10
M  V30 10 2 6 11
M  V30 11 1 7 12
M  V30 12 2 8 13
M  V30 13 1 9 14
M  V30 14 2 9 15
M  V30 15 1 13 16
M  V30 16 2 14 17
M  V30 17 1 15 18
M  V30 18 1 16 19
M  V30 19 1 17 20
M  V30 20 1 17 21
M  V30 21 2 18 22
M  V30 22 1 21 23
M  V30 23 2 23 24
M  V30 24 1 23 25
M  V30 25 1 24 26
M  V30 26 2 25 27
M  V30 27 1 26 28
M  V30 28 2 26 29
M  V30 29 1 29 30
M  V30 30 1 7 11
M  V30 31 1 13 15
M  V30 32 1 18 20
M  V30 33 1 27 29
M  V30 34 1 4 31
M  V30 35 1 11 32
M  V30 36 1 16 33
M  V30 37 1 16 34
M  V30 38 1 19 35
M  V30 39 1 19 36
M  V30 40 1 19 37
M  V30 41 1 20 38
M  V30 42 1 21 39
M  V30 43 1 21 40
M  V30 44 1 24 41
M  V30 45 1 25 42
M  V30 46 1 27 43
M  V30 47 1 28 44
M  V30 48 1 30 45
M  V30 END BOND
M  V30 END CTAB
M  END
>  <Molecule Name>
OPRAIFVPXXVXDL-LNNLXFCONA-N

>  <hs_clash>
0.0

>  <hs_total>
186.94580813240862

>  <Total Molweight>
465.723

>  <cLogP>
3.6912

>  <H-Acceptors>
7

>  <H-Donors>
3

>  <Polar Surface Area>
99.74

>  <Non-H Atoms>
30

>  <sp3-Atoms>
5

$$$$
XIKUCJUOFVMZHJ-NMRHLHPGNA-M
Actelion Java MolfileCreator 2.0

  0  0  0  0  0  0              0 V3000
M  V30 BEGIN CTAB
M  V30 COUNTS 30 32 0 0 0
M  V30 BEGIN ATOM
M  V30 1 O 24.7426 9.8452 57.1614 0
M  V30 2 C 24.6403 9.7237 58.3594 0
M  V30 3 O 23.6108 10.0689 59.0029 0 CHG=-1
M  V30 4 C 25.6722 8.8465 59.0803 0
M  V30 5 C 25.9334 9.0443 60.5678 0
M  V30 6 C 26.4058 7.984 61.3039 0
M  V30 7 C 25.8961 10.2876 61.1873 0
M  V30 8 C 26.7168 8.0922 62.657 0
M  V30 9 C 26.1461 10.4326 62.5425 0
M  V30 10 C 27.1826 6.9025 63.4016 0
M  V30 11 C 26.5843 9.3351 63.2737 0
M  V30 12 N 28.0839 7.1927 64.3537 0
M  V30 13 C 26.7776 5.5575 63.2741 0
M  V30 14 C 28.615 6.2068 65.1102 0
M  V30 15 N 25.8611 4.9075 62.4574 0
M  V30 16 C 27.3787 4.6168 64.1191 0
M  V30 17 N 28.3018 4.8899 65.0414 0
M  V30 18 N 29.5019 6.6082 66.0326 0
M  V30 19 C 25.9105 3.6516 62.8446 0
M  V30 20 N 26.8222 3.411 63.8285 0
M  V30 21 H 26.6325 8.9986 58.5662 0
M  V30 22 H 25.3477 7.8034 58.9507 0
M  V30 23 H 26.5408 7.031 60.8142 0
M  V30 24 H 25.6662 11.1628 60.598 0
M  V30 25 H 26.0019 11.3882 63.0251 0
M  V30 26 H 26.8227 9.4455 64.3214 0
M  V30 27 H 29.607 7.6018 65.9848 0
M  V30 28 H 29.8382 5.8149 66.5399 0
M  V30 29 H 25.2846 2.8802 62.4208 0
M  V30 30 H 27.0374 2.53 64.2496 0
M  V30 END ATOM
M  V30 BEGIN BOND
M  V30 1 2 1 2
M  V30 2 1 2 3
M  V30 3 1 2 4
M  V30 4 1 4 5
M  V30 5 2 5 6
M  V30 6 1 5 7
M  V30 7 1 6 8
M  V30 8 2 7 9
M  V30 9 1 8 10
M  V30 10 2 8 11
M  V30 11 2 10 12
M  V30 12 1 10 13
M  V30 13 1 12 14
M  V30 14 1 13 15
M  V30 15 2 13 16
M  V30 16 2 14 17
M  V30 17 1 14 18
M  V30 18 2 15 19
M  V30 19 1 16 20
M  V30 20 1 9 11
M  V30 21 1 16 17
M  V30 22 1 19 20
M  V30 23 1 4 21
M  V30 24 1 4 22
M  V30 25 1 6 23
M  V30 26 1 7 24
M  V30 27 1 9 25
M  V30 28 1 11 26
M  V30 29 1 18 27
M  V30 30 1 18 28
M  V30 31 1 19 29
M  V30 32 1 20 30
M  V30 END BOND
M  V30 END CTAB
M  END
>  <Molecule Name>
XIKUCJUOFVMZHJ-NMRHLHPGNA-M

>  <hs_clash>
0.0

>  <hs_total>
185.62225981696895

>  <Total Molweight>
268.255

>  <cLogP>
-1.3419

>  <H-Acceptors>
7

>  <H-Donors>
2

>  <Polar Surface Area>
120.61

>  <Non-H Atoms>
20

>  <sp3-Atoms>
2

$$$$
MNHPHKFLWAPNOV-KQEHPHAYNA-N
Actelion Java MolfileCreator 2.0

  0  0  0  0  0  0              0 V3000
M  V30 BEGIN CTAB
M  V30 COUNTS 34 36 0 0 0
M  V30 BEGIN ATOM
M  V30 1 S 33.6128 10.9406 64.7996 0
M  V30 2 O 34.5668 10.4517 63.8596 0
M  V30 3 O 34.0645 11.2931 66.1243 0
M  V30 4 N 32.9238 12.2454 64.1642 0
M  V30 5 C 32.3947 9.6864 64.9703 0
M  V30 6 C 31.5901 9.3658 63.8911 0
M  V30 7 C 32.2695 8.996 66.1632 0
M  V30 8 C 30.6559 8.3624 64.0068 0
M  V30 9 C 31.3342 7.9826 66.2751 0
M  V30 10 C 30.5316 7.6529 65.2011 0
M  V30 11 N 29.5792 6.6306 65.3081 0
M  V30 12 C 28.3876 6.7144 64.7252 0
M  V30 13 O 27.9277 7.7844 64.2971 0
M  V30 14 C 27.6698 5.4501 64.5535 0
M  V30 15 N 28.1191 4.3379 65.1496 0
M  V30 16 C 26.562 5.1761 63.7583 0
M  V30 17 N 27.2901 3.344 64.7475 0
M  V30 18 C 26.3267 3.807 63.8927 0
M  V30 19 C 25.7502 5.933 62.9165 0
M  V30 20 C 25.2679 3.2172 63.2168 0
M  V30 21 C 24.6874 5.3386 62.2588 0
M  V30 22 C 24.4453 3.9829 62.4121 0
M  V30 23 H 33.5979 12.7503 63.6253 0
M  V30 24 H 32.1653 11.9689 63.5739 0
M  V30 25 H 31.6954 9.9021 62.9598 0
M  V30 26 H 32.8996 9.2473 67.0038 0
M  V30 27 H 30.0164 8.1235 63.1699 0
M  V30 28 H 31.2311 7.4469 67.2074 0
M  V30 29 H 29.8025 5.8134 65.8393 0
M  V30 30 H 27.3722 2.3912 65.039 0
M  V30 31 H 25.9503 6.9852 62.7772 0
M  V30 32 H 25.0862 2.1578 63.3201 0
M  V30 33 H 24.0454 5.9325 61.6251 0
M  V30 34 H 23.6119 3.5234 61.9013 0
M  V30 END ATOM
M  V30 BEGIN BOND
M  V30 1 2 1 2
M  V30 2 2 1 3
M  V30 3 1 1 4
M  V30 4 1 1 5
M  V30 5 2 5 6
M  V30 6 1 5 7
M  V30 7 1 6 8
M  V30 8 2 7 9
M  V30 9 2 8 10
M  V30 10 1 10 11
M  V30 11 1 11 12
M  V30 12 2 12 13
M  V30 13 1 12 14
M  V30 14 2 14 15
M  V30 15 1 14 16
M  V30 16 1 15 17
M  V30 17 2 16 18
M  V30 18 1 16 19
M  V30 19 1 18 20
M  V30 20 2 19 21
M  V30 21 2 20 22
M  V30 22 1 9 10
M  V30 23 1 17 18
M  V30 24 1 21 22
M  V30 25 1 4 23
M  V30 26 1 4 24
M  V30 27 1 6 25
M  V30 28 1 7 26
M  V30 29 1 8 27
M  V30 30 1 9 28
M  V30 31 1 11 29
M  V30 32 1 17 30
M  V30 33 1 19 31
M  V30 34 1 20 32
M  V30 35 1 21 33
M  V30 36 1 22 34
M  V30 END BOND
M  V30 END CTAB
M  END
>  <Molecule Name>
MNHPHKFLWAPNOV-KQEHPHAYNA-N

>  <hs_clash>
3.0

>  <hs_total>
180.818164840008

>  <Total Molweight>
316.340

>  <cLogP>
0.8356

>  <H-Acceptors>
7

>  <H-Donors>
3

>  <Polar Surface Area>
126.32

>  <Non-H Atoms>
22

>  <sp3-Atoms>
1

$$$$
ZPRDUVXWJHLAHX-XZUJVXCPNA-M
Actelion Java MolfileCreator 2.0

  0  0  0  0  0  0              0 V3000
M  V30 BEGIN CTAB
M  V30 COUNTS 26 27 0 0 0
M  V30 BEGIN ATOM
M  V30 1 O 30.064 8.1673 64.9899 0
M  V30 2 C 29.1455 7.3969 64.6647 0
M  V30 3 N 28.1583 7.7685 63.8111 0
M  V30 4 N 29.075 6.1617 65.3109 0
M  V30 5 C 27.1432 6.8956 63.5026 0
M  V30 6 C 28.1879 9.0352 63.2429 0
M  V30 7 C 28.1324 5.2257 64.9967 0
M  V30 8 O 26.2208 7.3004 62.7528 0 CHG=-1
M  V30 9 C 26.977 5.6221 64.2322 0
M  V30 10 C 29.0022 9.2264 62.1153 0
M  V30 11 C 27.4313 10.1358 63.7361 0
M  V30 12 O 28.2038 4.1714 65.6249 0
M  V30 13 C 26.2146 4.5991 63.5551 0
M  V30 14 C 29.0753 10.4558 61.468 0
M  V30 15 C 27.511 11.3853 63.0953 0
M  V30 16 O 25.4694 4.8473 62.5499 0
M  V30 17 N 26.2638 3.385 64.1975 0
M  V30 18 C 28.3321 11.5429 61.9638 0
M  V30 19 H 29.7387 5.9554 66.03 0
M  V30 20 H 29.5859 8.3987 61.7412 0
M  V30 21 H 26.7966 10.0115 64.6013 0
M  V30 22 H 29.6971 10.5749 60.5931 0
M  V30 23 H 26.9426 12.2231 63.4716 0
M  V30 24 H 25.6915 2.6283 63.8813 0
M  V30 25 H 26.8716 3.2583 64.9814 0
M  V30 26 H 28.3919 12.5031 61.4733 0
M  V30 END ATOM
M  V30 BEGIN BOND
M  V30 1 2 1 2
M  V30 2 1 2 3
M  V30 3 1 2 4
M  V30 4 1 3 5
M  V30 5 1 3 6
M  V30 6 1 4 7
M  V30 7 1 5 8
M  V30 8 2 5 9
M  V30 9 2 6 10
M  V30 10 1 6 11
M  V30 11 2 7 12
M  V30 12 1 9 13
M  V30 13 1 10 14
M  V30 14 2 11 15
M  V30 15 2 13 16
M  V30 16 1 13 17
M  V30 17 2 14 18
M  V30 18 1 7 9
M  V30 19 1 15 18
M  V30 20 1 4 19
M  V30 21 1 10 20
M  V30 22 1 11 21
M  V30 23 1 14 22
M  V30 24 1 15 23
M  V30 25 1 17 24
M  V30 26 1 17 25
M  V30 27 1 18 26
M  V30 END BOND
M  V30 END CTAB
M  END
>  <Molecule Name>
ZPRDUVXWJHLAHX-XZUJVXCPNA-M

>  <hs_clash>
0.0

>  <hs_total>
179.3581970800249

>  <Total Molweight>
246.202

>  <cLogP>
-2.4129

>  <H-Acceptors>
7

>  <H-Donors>
2

>  <Polar Surface Area>
115.56

>  <Non-H Atoms>
18

>  <sp3-Atoms>
1

$$$$
CQYPNVKLVHHOSJ-HDAMEQSMNA-N
Actelion Java MolfileCreator 2.0

  0  0  0  0  0  0              0 V3000
M  V30 BEGIN CTAB
M  V30 COUNTS 15 16 0 0 0
M  V30 BEGIN ATOM
M  V30 1 I 26.452 7.9301 61.7984 0
M  V30 2 C 27.177 6.5999 63.2351 0
M  V30 3 N 28.1149 7.0131 64.0841 0
M  V30 4 C 26.7635 5.2967 63.2608 0
M  V30 5 C 28.6612 6.0944 64.9424 0
M  V30 6 N 25.798 4.6074 62.5357 0
M  V30 7 C 27.3629 4.4346 64.1939 0
M  V30 8 N 28.3597 4.7777 65.0396 0
M  V30 9 N 29.5794 6.5273 65.826 0
M  V30 10 C 25.8524 3.3823 63.031 0
M  V30 11 N 26.7989 3.2085 64.0102 0
M  V30 12 H 29.7219 7.5098 65.7049 0
M  V30 13 H 29.892 5.76 66.3856 0
M  V30 14 H 25.2065 2.5855 62.6934 0
M  V30 15 H 27.0264 2.3602 64.488 0
M  V30 END ATOM
M  V30 BEGIN BOND
M  V30 1 1 1 2
M  V30 2 2 2 3
M  V30 3 1 2 4
M  V30 4 1 3 5
M  V30 5 1 4 6
M  V30 6 2 4 7
M  V30 7 2 5 8
M  V30 8 1 5 9
M  V30 9 2 6 10
M  V30 10 1 7 11
M  V30 11 1 7 8
M  V30 12 1 10 11
M  V30 13 1 9 12
M  V30 14 1 9 13
M  V30 15 1 10 14
M  V30 16 1 11 15
M  V30 END BOND
M  V30 END CTAB
M  END
>  <Molecule Name>
CQYPNVKLVHHOSJ-HDAMEQSMNA-N

>  <hs_clash>
0.0

>  <hs_total>
178.50415047472612

>  <Total Molweight>
261.022

>  <cLogP>
0.2056

>  <H-Acceptors>
5

>  <H-Donors>
2

>  <Polar Surface Area>
80.48

>  <Non-H Atoms>
11

>  <sp3-Atoms>
0

$$$$
DXUJQXZHHGJMFM-UHFFFAOYNA-N
Actelion Java MolfileCreator 2.0

  0  0  0  0  0  0              0 V3000
M  V30 BEGIN CTAB
M  V30 COUNTS 42 45 0 0 0
M  V30 BEGIN ATOM
M  V30 1 Br 24.9499 3.462 62.9575 0
M  V30 2 C 26.4109 4.241 63.8377 0
M  V30 3 C 26.845 5.5447 63.7433 0
M  V30 4 C 27.3376 3.5823 64.6846 0
M  V30 5 N 26.3306 6.6024 63.0211 0
M  V30 6 N 27.9564 5.6225 64.4762 0
M  V30 7 N 28.2709 4.432 65.0846 0
M  V30 8 C 27.0378 7.7039 63.0698 0
M  V30 9 C 28.7451 6.7112 64.4502 0
M  V30 10 C 26.557 8.87 62.3345 0
M  V30 11 C 28.2747 7.7779 63.7331 0
M  V30 12 N 29.9498 6.6119 65.1041 0
M  V30 13 C 26.2698 8.8048 60.9494 0
M  V30 14 C 26.3963 10.0759 63.0321 0
M  V30 15 C 31.0555 7.575 64.7788 0
M  V30 16 C 25.8187 9.9714 60.2984 0
M  V30 17 C 26.4111 7.5249 60.1514 0
M  V30 18 C 25.9403 11.2175 62.3629 0
M  V30 19 C 31.2161 8.5899 65.9119 0
M  V30 20 C 25.69 11.1513 60.9941 0
M  V30 21 C 31.2453 8.2028 67.2261 0
M  V30 22 C 31.3349 9.9937 65.6198 0
M  V30 23 N 31.3723 9.1396 68.3433 0 CHG=1
M  V30 24 C 31.4593 10.954 66.6652 0
M  V30 25 O 31.3298 8.7337 69.6019 0 CHG=-1
M  V30 26 C 31.4795 10.5471 67.977 0
M  V30 27 H 27.2893 2.5401 64.9629 0
M  V30 28 H 28.8591 8.6842 63.6766 0
M  V30 29 H 30.1709 5.7648 65.587 0
M  V30 30 H 26.6244 10.124 64.0868 0
M  V30 31 H 31.9962 7.0196 64.6515 0
M  V30 32 H 30.8135 8.1058 63.8464 0
M  V30 33 H 25.5726 9.9382 59.2475 0
M  V30 34 H 25.7478 6.7547 60.5719 0
M  V30 35 H 26.135 7.714 59.1036 0
M  V30 36 H 27.4532 7.1766 60.1988 0
M  V30 37 H 25.784 12.1403 62.9021 0
M  V30 38 H 25.3888 12.0453 60.4682 0
M  V30 39 H 31.1704 7.1491 67.4496 0
M  V30 40 H 31.3298 10.325 64.5921 0
M  V30 41 H 31.5375 12.0041 66.4258 0
M  V30 42 H 31.5775 11.288 68.7569 0
M  V30 END ATOM
M  V30 BEGIN BOND
M  V30 1 1 1 2
M  V30 2 2 2 3
M  V30 3 1 2 4
M  V30 4 1 3 5
M  V30 5 1 3 6
M  V30 6 2 4 7
M  V30 7 2 5 8
M  V30 8 1 6 9
M  V30 9 1 8 10
M  V30 10 1 8 11
M  V30 11 1 9 12
M  V30 12 2 10 13
M  V30 13 1 10 14
M  V30 14 1 12 15
M  V30 15 1 13 16
M  V30 16 1 13 17
M  V30 17 2 14 18
M  V30 18 1 15 19
M  V30 19 2 16 20
M  V30 20 2 19 21
M  V30 21 1 19 22
M  V30 22 1 21 23
M  V30 23 2 22 24
M  V30 24 1 23 25
M  V30 25 2 23 26
M  V30 26 1 6 7
M  V30 27 2 9 11
M  V30 28 1 18 20
M  V30 29 1 24 26
M  V30 30 1 4 27
M  V30 31 1 11 28
M  V30 32 1 12 29
M  V30 33 1 14 30
M  V30 34 1 15 31
M  V30 35 1 15 32
M  V30 36 1 16 33
M  V30 37 1 17 34
M  V30 38 1 17 35
M  V30 39 1 17 36
M  V30 40 1 18 37
M  V30 41 1 20 38
M  V30 42 1 21 39
M  V30 43 1 22 40
M  V30 44 1 24 41
M  V30 45 1 26 42
M  V30 END BOND
M  V30 END CTAB
M  END
>  <Molecule Name>
DXUJQXZHHGJMFM-UHFFFAOYNA-N

>  <hs_clash>
0.0

>  <hs_total>
173.78642214170702

>  <Total Molweight>
410.274

>  <cLogP>
2.1513

>  <H-Acceptors>
6

>  <H-Donors>
1

>  <Polar Surface Area>
67.68

>  <Non-H Atoms>
26

>  <sp3-Atoms>
3

$$$$
ZKBQDFAWXLTYKS-BGGKNDAXNA-N
Actelion Java MolfileCreator 2.0

  0  0  0  0  0  0              0 V3000
M  V30 BEGIN CTAB
M  V30 COUNTS 13 14 0 0 0
M  V30 BEGIN ATOM
M  V30 1 Cl 26.7791 8.0591 63.5235 0
M  V30 2 C 27.3731 6.7067 64.3135 0
M  V30 3 N 28.3797 6.9591 65.1704 0
M  V30 4 C 26.855 5.4749 64.0968 0
M  V30 5 C 28.9311 5.8803 65.857 0
M  V30 6 N 25.8571 4.9985 63.3329 0
M  V30 7 C 27.3345 4.4364 64.8006 0
M  V30 8 N 28.337 4.6278 65.6452 0
M  V30 9 C 25.7371 3.6788 63.5351 0
M  V30 10 N 26.6889 3.3314 64.436 0
M  V30 11 H 29.7748 6.0023 66.5201 0
M  V30 12 H 25.0201 3.0188 63.0699 0
M  V30 13 H 26.8734 2.4066 64.7687 0
M  V30 END ATOM
M  V30 BEGIN BOND
M  V30 1 1 1 2
M  V30 2 2 2 3
M  V30 3 1 2 4
M  V30 4 1 3 5
M  V30 5 1 4 6
M  V30 6 2 4 7
M  V30 7 2 5 8
M  V30 8 2 6 9
M  V30 9 1 7 10
M  V30 10 1 7 8
M  V30 11 1 9 10
M  V30 12 1 5 11
M  V30 13 1 9 12
M  V30 14 1 10 13
M  V30 END BOND
M  V30 END CTAB
M  END
>  <Molecule Name>
ZKBQDFAWXLTYKS-BGGKNDAXNA-N

>  <hs_clash>
0.0

>  <hs_total>
173.78037592193368

>  <Total Molweight>
154.560

>  <cLogP>
0.6823

>  <H-Acceptors>
4

>  <H-Donors>
1

>  <Polar Surface Area>
54.46

>  <Non-H Atoms>
10

>  <sp3-Atoms>
0

$$$$
JABXNQUXGJTKRO-MZSCVVMKNA-N
Actelion Java MolfileCreator 2.0

  0  0  0  0  0  0              0 V3000
M  V30 BEGIN CTAB
M  V30 COUNTS 44 46 0 0 0
M  V30 BEGIN ATOM
M  V30 1 O 26.3274 7.3969 62.765 0
M  V30 2 C 26.9869 6.5185 63.5854 0
M  V30 3 C 26.2946 8.8094 62.9615 0
M  V30 4 N 26.485 5.2547 63.6257 0
M  V30 5 C 28.0982 6.8261 64.3221 0
M  V30 6 C 26.3818 9.4833 61.5975 0
M  V30 7 C 27.0493 4.292 64.3958 0
M  V30 8 N 28.8887 7.9514 64.5396 0
M  V30 9 C 28.6774 5.7729 65.1335 0
M  V30 10 C 25.7799 10.8854 61.6103 0
M  V30 11 C 25.7495 8.6341 60.49 0
M  V30 12 N 28.1555 4.5337 65.1585 0
M  V30 13 N 26.4765 3.0794 64.3558 0
M  V30 14 C 29.8548 7.5354 65.4469 0
M  V30 15 N 29.73 6.2048 65.8018 0
M  V30 16 C 25.99 11.568 60.2512 0
M  V30 17 C 25.9385 9.2946 59.1242 0
M  V30 18 C 30.9399 8.4548 65.9257 0
M  V30 19 C 25.4196 10.7331 59.0985 0
M  V30 20 C 32.1237 8.2793 64.991 0
M  V30 21 C 31.4188 8.1953 67.3416 0
M  V30 22 H 25.3554 9.0947 63.4582 0
M  V30 23 H 27.1471 9.1186 63.5845 0
M  V30 24 H 27.4491 9.5897 61.3547 0
M  V30 25 H 24.702 10.8162 61.8188 0
M  V30 26 H 26.2672 11.4827 62.3956 0
M  V30 27 H 24.6735 8.5228 60.6909 0
M  V30 28 H 26.225 7.6425 60.4803 0
M  V30 29 H 25.6941 3.1003 63.7331 0
M  V30 30 H 26.9735 2.4553 64.9584 0
M  V30 31 H 30.3102 5.6839 66.4279 0
M  V30 32 H 25.4885 12.547 60.2634 0
M  V30 33 H 27.0683 11.7104 60.0879 0
M  V30 34 H 25.3936 8.7086 58.3694 0
M  V30 35 H 27.0109 9.3008 58.8798 0
M  V30 36 H 30.5853 9.494 65.8566 0
M  V30 37 H 24.3226 10.7173 59.1801 0
M  V30 38 H 25.7096 11.1989 58.1452 0
M  V30 39 H 32.9439 8.9394 65.3097 0
M  V30 40 H 32.4622 7.2332 65.0213 0
M  V30 41 H 31.8222 8.538 63.9653 0
M  V30 42 H 32.2093 8.9153 67.5998 0
M  V30 43 H 30.5767 8.3096 68.0404 0
M  V30 44 H 31.8172 7.1725 67.4121 0
M  V30 END ATOM
M  V30 BEGIN BOND
M  V30 1 1 1 2
M  V30 2 1 1 3
M  V30 3 2 2 4
M  V30 4 1 2 5
M  V30 5 1 3 6
M  V30 6 1 4 7
M  V30 7 1 5 8
M  V30 8 2 5 9
M  V30 9 1 6 10
M  V30 10 1 6 11
M  V30 11 2 7 12
M  V30 12 1 7 13
M  V30 13 2 8 14
M  V30 14 1 9 15
M  V30 15 1 10 16
M  V30 16 1 11 17
M  V30 17 1 14 18
M  V30 18 1 16 19
M  V30 19 1 18 20
M  V30 20 1 18 21
M  V30 21 1 9 12
M  V30 22 1 14 15
M  V30 23 1 17 19
M  V30 24 1 3 22
M  V30 25 1 3 23
M  V30 26 1 6 24
M  V30 27 1 10 25
M  V30 28 1 10 26
M  V30 29 1 11 27
M  V30 30 1 11 28
M  V30 31 1 13 29
M  V30 32 1 13 30
M  V30 33 1 15 31
M  V30 34 1 16 32
M  V30 35 1 16 33
M  V30 36 1 17 34
M  V30 37 1 17 35
M  V30 38 1 18 36
M  V30 39 1 19 37
M  V30 40 1 19 38
M  V30 41 1 20 39
M  V30 42 1 20 40
M  V30 43 1 20 41
M  V30 44 1 21 42
M  V30 45 1 21 43
M  V30 46 1 21 44
M  V30 END BOND
M  V30 END CTAB
M  END
>  <Molecule Name>
JABXNQUXGJTKRO-MZSCVVMKNA-N

>  <hs_clash>
0.0

>  <hs_total>
173.62632233584637

>  <Total Molweight>
289.382

>  <cLogP>
2.7794

>  <H-Acceptors>
6

>  <H-Donors>
2

>  <Polar Surface Area>
89.71

>  <Non-H Atoms>
21

>  <sp3-Atoms>
11

$$$$
BACSZMCLZIDTIO-LORKRPAXNA-P
Actelion Java MolfileCreator 2.0

  0  0  0  0  0  0              0 V3000
M  V30 BEGIN CTAB
M  V30 COUNTS 65 68 0 0 0
M  V30 BEGIN ATOM
M  V30 1 F 25.2834 2.8269 63.5876 0
M  V30 2 C 26.2188 3.6675 64.0576 0
M  V30 3 C 26.2664 5.0252 63.7991 0
M  V30 4 C 27.2022 3.1572 64.8509 0
M  V30 5 N 27.2327 5.8076 64.2966 0
M  V30 6 C 25.2222 5.6614 62.933 0
M  V30 7 N 28.1727 3.9128 65.3568 0
M  V30 8 C 28.1655 5.2205 65.06 0
M  V30 9 N 25.3153 6.8033 62.1245 0
M  V30 10 C 23.9241 5.2162 62.8015 0
M  V30 11 N 29.2289 5.9388 65.6407 0
M  V30 12 C 24.139 7.0522 61.529 0
M  V30 13 C 26.5148 7.596 61.921 0
M  V30 14 N 23.3045 6.0966 61.9324 0 CHG=1
M  V30 15 C 29.9314 7.077 65.2102 0
M  V30 16 C 23.7885 8.1633 60.5923 0
M  V30 17 C 26.8865 7.5333 60.4538 0
M  V30 18 C 26.4171 9.0193 62.4467 0
M  V30 19 C 29.6914 7.7194 64.016 0
M  V30 20 C 30.9273 7.5614 66.0441 0
M  V30 21 C 30.4297 8.8308 63.6614 0
M  V30 22 C 31.6848 8.6755 65.7215 0
M  V30 23 C 31.4059 9.3012 64.5197 0
M  V30 24 C 32.2176 10.4544 64.1622 0
M  V30 25 O 33.4242 10.258 64.1212 0
M  V30 26 N 31.6447 11.6802 63.926 0
M  V30 27 C 32.5782 12.7019 63.5092 0
M  V30 28 C 30.322 11.9086 63.409 0
M  V30 29 C 31.794 13.7694 62.7982 0 CFG=2
M  V30 30 C 30.3344 13.3763 62.9953 0
M  V30 31 N 32.1991 13.6851 61.3551 0 CHG=1
M  V30 32 C 31.1444 14.0549 60.3724 0
M  V30 33 C 33.4138 14.5073 61.0853 0
M  V30 34 H 27.1928 2.1014 65.0771 0
M  V30 35 H 23.4809 4.3555 63.2798 0
M  V30 36 H 29.8264 5.329 66.1615 0
M  V30 37 H 27.3304 7.1097 62.4761 0
M  V30 38 H 22.3498 6.024 61.6438 0
M  V30 39 H 24.431 8.1088 59.7014 0
M  V30 40 H 22.7347 8.0701 60.2906 0
M  V30 41 H 23.9412 9.1295 61.0957 0
M  V30 42 H 26.9413 6.4823 60.1339 0
M  V30 43 H 26.124 8.0582 59.8598 0
M  V30 44 H 27.8642 8.0141 60.3027 0
M  V30 45 H 26.1453 8.9992 63.5126 0
M  V30 46 H 27.3877 9.5222 62.3255 0
M  V30 47 H 25.6475 9.5665 61.8826 0
M  V30 48 H 28.9218 7.3519 63.3533 0
M  V30 49 H 31.1191 7.053 66.9774 0
M  V30 50 H 30.2457 9.3289 62.7211 0
M  V30 51 H 32.4594 9.0399 66.38 0
M  V30 52 H 33.3273 12.2708 62.8291 0
M  V30 53 H 33.0836 13.1298 64.3876 0
M  V30 54 H 30.1238 11.2601 62.5431 0
M  V30 55 H 29.5627 11.7276 64.1841 0
M  V30 56 H 31.9971 14.7661 63.2173 0
M  V30 57 H 29.7769 13.5092 62.0565 0
M  V30 58 H 29.879 13.9951 63.7827 0
M  V30 59 H 32.4448 12.7326 61.1775 0
M  V30 60 H 31.5436 13.9591 59.352 0
M  V30 61 H 30.2804 13.3848 60.4924 0
M  V30 62 H 30.8289 15.0943 60.5465 0
M  V30 63 H 33.6842 14.4248 60.0224 0
M  V30 64 H 33.2061 15.5596 61.33 0
M  V30 65 H 34.247 14.1445 61.7049 0
M  V30 END ATOM
M  V30 BEGIN BOND
M  V30 1 1 1 2
M  V30 2 2 2 3
M  V30 3 1 2 4
M  V30 4 1 3 5
M  V30 5 1 3 6
M  V30 6 2 4 7
M  V30 7 2 5 8
M  V30 8 1 6 9
M  V30 9 2 6 10
M  V30 10 1 8 11
M  V30 11 1 9 12
M  V30 12 1 9 13
M  V30 13 1 10 14
M  V30 14 1 11 15
M  V30 15 1 12 16
M  V30 16 1 13 17
M  V30 17 1 13 18
M  V30 18 2 15 19
M  V30 19 1 15 20
M  V30 20 1 19 21
M  V30 21 2 20 22
M  V30 22 2 21 23
M  V30 23 1 23 24
M  V30 24 2 24 25
M  V30 25 1 24 26
M  V30 26 1 26 27
M  V30 27 1 26 28
M  V30 28 1 27 29
M  V30 29 1 28 30
M  V30 30 1 29 31
M  V30 31 1 31 32
M  V30 32 1 31 33
M  V30 33 1 7 8
M  V30 34 2 12 14
M  V30 35 1 22 23
M  V30 36 1 29 30
M  V30 37 1 4 34
M  V30 38 1 10 35
M  V30 39 1 11 36
M  V30 40 1 13 37
M  V30 41 1 14 38
M  V30 42 1 16 39
M  V30 43 1 16 40
M  V30 44 1 16 41
M  V30 45 1 17 42
M  V30 46 1 17 43
M  V30 47 1 17 44
M  V30 48 1 18 45
M  V30 49 1 18 46
M  V30 50 1 18 47
M  V30 51 1 19 48
M  V30 52 1 20 49
M  V30 53 1 21 50
M  V30 54 1 22 51
M  V30 55 1 27 52
M  V30 56 1 27 53
M  V30 57 1 28 54
M  V30 58 1 28 55
M  V30 59 1 29 56
M  V30 60 1 30 57
M  V30 61 1 30 58
M  V30 62 1 31 59
M  V30 63 1 32 60
M  V30 64 1 32 61
M  V30 65 1 32 62
M  V30 66 1 33 63
M  V30 67 1 33 64
M  V30 68 1 33 65
M  V30 END BOND
M  V30 BEGIN COLLECTION
M  V30 MDLV30/STERAC1 ATOMS=(1 29)
M  V30 END COLLECTION
M  V30 END CTAB
M  END
>  <Molecule Name>
BACSZMCLZIDTIO-LORKRPAXNA-P

>  <hs_clash>
47.0

>  <hs_total>
173.3639237567474

>  <Total Molweight>
453.564

>  <cLogP>
-0.2716

>  <H-Acceptors>
8

>  <H-Donors>
3

>  <Polar Surface Area>
81.63

>  <Non-H Atoms>
33

>  <sp3-Atoms>
11

$$$$
GOILPRCCOREWQE-FZOZFQFYNA-N
Actelion Java MolfileCreator 2.0

  0  0  0  0  0  0              0 V3000
M  V30 BEGIN CTAB
M  V30 COUNTS 17 18 0 0 0
M  V30 BEGIN ATOM
M  V30 1 O 26.5887 7.6777 63.5234 0
M  V30 2 C 27.1495 6.6915 64.236 0
M  V30 3 C 27.1123 8.9437 63.7332 0
M  V30 4 N 28.1632 6.8999 65.0694 0
M  V30 5 C 26.6907 5.4479 64.0017 0
M  V30 6 C 28.7025 5.8515 65.8047 0
M  V30 7 N 25.7366 4.9698 63.2584 0
M  V30 8 C 27.203 4.4003 64.6909 0
M  V30 9 N 28.1944 4.6217 65.5864 0
M  V30 10 C 25.6552 3.6634 63.4098 0
M  V30 11 N 26.5691 3.2773 64.3212 0
M  V30 12 H 26.5804 9.6706 63.1015 0
M  V30 13 H 26.9913 9.2203 64.7911 0
M  V30 14 H 28.1812 8.9459 63.4737 0
M  V30 15 H 29.4946 6.0148 66.5205 0
M  V30 16 H 24.9698 3.0109 62.8897 0
M  V30 17 H 26.739 2.3493 64.6523 0
M  V30 END ATOM
M  V30 BEGIN BOND
M  V30 1 1 1 2
M  V30 2 1 1 3
M  V30 3 2 2 4
M  V30 4 1 2 5
M  V30 5 1 4 6
M  V30 6 1 5 7
M  V30 7 2 5 8
M  V30 8 2 6 9
M  V30 9 2 7 10
M  V30 10 1 8 11
M  V30 11 1 8 9
M  V30 12 1 10 11
M  V30 13 1 3 12
M  V30 14 1 3 13
M  V30 15 1 3 14
M  V30 16 1 6 15
M  V30 17 1 10 16
M  V30 18 1 11 17
M  V30 END BOND
M  V30 END CTAB
M  END
>  <Molecule Name>
GOILPRCCOREWQE-FZOZFQFYNA-N

>  <hs_clash>
0.0

>  <hs_total>
172.14969276742207

>  <Total Molweight>
150.141

>  <cLogP>
0.2603

>  <H-Acceptors>
5

>  <H-Donors>
1

>  <Polar Surface Area>
63.69

>  <Non-H Atoms>
11

>  <sp3-Atoms>
2

$$$$
HOOQLZPFGONGJY-LQFNOIFHNA-N
Actelion Java MolfileCreator 2.0

  0  0  0  0  0  0              0 V3000
M  V30 BEGIN CTAB
M  V30 COUNTS 50 53 0 0 0
M  V30 BEGIN ATOM
M  V30 1 O 31.2014 11.9267 65.9067 0
M  V30 2 C 30.6982 10.6351 65.9866 0
M  V30 3 C 32.5791 11.8214 65.56 0
M  V30 4 C 30.7326 9.9387 67.1794 0
M  V30 5 C 30.1469 10.0402 64.8677 0
M  V30 6 O 31.2783 10.5308 68.3089 0
M  V30 7 C 30.2235 8.6591 67.2487 0
M  V30 8 O 30.1167 10.7394 63.6664 0
M  V30 9 C 29.6456 8.7548 64.9482 0
M  V30 10 C 31.8272 9.4945 69.1164 0
M  V30 11 C 29.6731 8.0544 66.1398 0
M  V30 12 C 29.2844 10.0044 62.7712 0
M  V30 13 N 29.1767 6.7407 66.2748 0
M  V30 14 C 28.0412 6.1928 65.6494 0
M  V30 15 N 27.2744 6.9722 64.8704 0
M  V30 16 N 27.8394 4.8914 65.9131 0
M  V30 17 N 26.1396 6.2798 64.2915 0
M  V30 18 C 26.7979 4.2339 65.3908 0
M  V30 19 C 25.2017 6.7684 63.477 0
M  V30 20 C 25.9552 4.9536 64.5833 0
M  V30 21 N 24.392 5.7359 63.2341 0
M  V30 22 C 25.0614 8.1208 62.9097 0
M  V30 23 C 24.8221 4.5994 63.8906 0
M  V30 24 C 25.0851 8.2395 61.5346 0
M  V30 25 C 24.9164 9.2099 63.741 0
M  V30 26 C 24.092 3.3441 63.7663 0
M  V30 27 C 24.9607 9.4882 60.9694 0
M  V30 28 C 24.7932 10.4548 63.1666 0
M  V30 29 C 24.8168 10.587 61.7919 0
M  V30 30 H 33.0171 12.828 65.4864 0
M  V30 31 H 33.109 11.2467 66.3337 0
M  V30 32 H 32.675 11.3083 64.5917 0
M  V30 33 H 30.2566 8.1232 68.186 0
M  V30 34 H 29.2264 8.291 64.0676 0
M  V30 35 H 32.2697 9.9316 70.0236 0
M  V30 36 H 31.0311 8.7902 69.3998 0
M  V30 37 H 32.6042 8.9613 68.5496 0
M  V30 38 H 29.2341 10.5267 61.8044 0
M  V30 39 H 29.704 8.9987 62.6231 0
M  V30 40 H 28.2729 9.9211 63.1958 0
M  V30 41 H 29.8167 6.0771 66.6617 0
M  V30 42 H 26.6287 3.1874 65.5959 0
M  V30 43 H 25.1995 7.3652 60.9114 0
M  V30 44 H 24.8992 9.0903 64.8142 0
M  V30 45 H 24.5916 2.5681 64.3646 0
M  V30 46 H 23.0626 3.4811 64.1301 0
M  V30 47 H 24.0697 3.0359 62.7107 0
M  V30 48 H 24.9756 9.6066 59.8961 0
M  V30 49 H 24.6782 11.3286 63.7909 0
M  V30 50 H 24.7205 11.569 61.3524 0
M  V30 END ATOM
M  V30 BEGIN BOND
M  V30 1 1 1 2
M  V30 2 1 1 3
M  V30 3 2 2 4
M  V30 4 1 2 5
M  V30 5 1 4 6
M  V30 6 1 4 7
M  V30 7 1 5 8
M  V30 8 2 5 9
M  V30 9 1 6 10
M  V30 10 2 7 11
M  V30 11 1 8 12
M  V30 12 1 11 13
M  V30 13 1 13 14
M  V30 14 2 14 15
M  V30 15 1 14 16
M  V30 16 1 15 17
M  V30 17 2 16 18
M  V30 18 1 17 19
M  V30 19 1 17 20
M  V30 20 2 19 21
M  V30 21 1 19 22
M  V30 22 2 20 23
M  V30 23 2 22 24
M  V30 24 1 22 25
M  V30 25 1 23 26
M  V30 26 1 24 27
M  V30 27 2 25 28
M  V30 28 2 27 29
M  V30 29 1 9 11
M  V30 30 1 18 20
M  V30 31 1 21 23
M  V30 32 1 28 29
M  V30 33 1 3 30
M  V30 34 1 3 31
M  V30 35 1 3 32
M  V30 36 1 7 33
M  V30 37 1 9 34
M  V30 38 1 10 35
M  V30 39 1 10 36
M  V30 40 1 10 37
M  V30 41 1 12 38
M  V30 42 1 12 39
M  V30 43 1 12 40
M  V30 44 1 13 41
M  V30 45 1 18 42
M  V30 46 1 24 43
M  V30 47 1 25 44
M  V30 48 1 26 45
M  V30 49 1 26 46
M  V30 50 1 26 47
M  V30 51 1 27 48
M  V30 52 1 28 49
M  V30 53 1 29 50
M  V30 END BOND
M  V30 END CTAB
M  END
>  <Molecule Name>
HOOQLZPFGONGJY-LQFNOIFHNA-N

>  <hs_clash>
1.0

>  <hs_total>
169.7089035879314

>  <Total Molweight>
391.430

>  <cLogP>
2.8865

>  <H-Acceptors>
8

>  <H-Donors>
1

>  <Polar Surface Area>
82.8

>  <Non-H Atoms>
29

>  <sp3-Atoms>
7

$$$$
LPQUJAANWFHCJV-QZINJFTLNA-N
Actelion Java MolfileCreator 2.0

  0  0  0  0  0  0              0 V3000
M  V30 BEGIN CTAB
M  V30 COUNTS 34 35 0 0 0
M  V30 BEGIN ATOM
M  V30 1 S 32.8382 10.899 64.8434 0
M  V30 2 O 33.2988 11.5951 66.1587 0
M  V30 3 O 34.1188 10.357 64.1257 0
M  V30 4 N 32.0127 11.8814 63.9234 0
M  V30 5 C 31.9496 9.5874 65.2047 0
M  V30 6 C 32.3103 8.766 66.2729 0
M  V30 7 C 30.8029 9.2629 64.4775 0
M  V30 8 C 31.5525 7.6272 66.5646 0
M  V30 9 C 30.0303 8.1238 64.7774 0
M  V30 10 C 30.3891 7.2905 65.8382 0
M  V30 11 N 29.7056 6.1663 66.2494 0
M  V30 12 C 28.4859 5.5123 65.7229 0
M  V30 13 S 27.262 6.185 64.5998 0
M  V30 14 N 28.2621 4.0969 65.908 0
M  V30 15 C 26.5809 4.6442 64.5527 0
M  V30 16 C 27.217 3.7185 65.2922 0
M  V30 17 C 25.2816 4.2777 63.8304 0
M  V30 18 C 24.2588 5.3887 64.0314 0
M  V30 19 C 25.3702 3.8941 62.364 0
M  V30 20 H 32.146 11.6318 62.9645 0
M  V30 21 H 32.3269 12.8195 64.0699 0
M  V30 22 H 33.1737 9.0095 66.8741 0
M  V30 23 H 30.4997 9.9034 63.6624 0
M  V30 24 H 31.8677 6.9837 67.3729 0
M  V30 25 H 29.157 7.8946 64.1845 0
M  V30 26 H 30.3329 5.4905 66.6366 0
M  V30 27 H 26.8569 2.7027 65.3596 0
M  V30 28 H 24.8816 3.3968 64.3538 0
M  V30 29 H 23.3249 5.1265 63.5128 0
M  V30 30 H 24.0587 5.5132 65.106 0
M  V30 31 H 24.654 6.3297 63.621 0
M  V30 32 H 24.3647 3.6588 61.9847 0
M  V30 33 H 25.7911 4.733 61.7906 0
M  V30 34 H 26.0188 3.0127 62.2545 0
M  V30 END ATOM
M  V30 BEGIN BOND
M  V30 1 2 1 2
M  V30 2 2 1 3
M  V30 3 1 1 4
M  V30 4 1 1 5
M  V30 5 2 5 6
M  V30 6 1 5 7
M  V30 7 1 6 8
M  V30 8 2 7 9
M  V30 9 2 8 10
M  V30 10 1 10 11
M  V30 11 1 11 12
M  V30 12 1 12 13
M  V30 13 2 12 14
M  V30 14 1 13 15
M  V30 15 1 14 16
M  V30 16 1 15 17
M  V30 17 1 17 18
M  V30 18 1 17 19
M  V30 19 1 9 10
M  V30 20 2 15 16
M  V30 21 1 4 20
M  V30 22 1 4 21
M  V30 23 1 6 22
M  V30 24 1 7 23
M  V30 25 1 8 24
M  V30 26 1 9 25
M  V30 27 1 11 26
M  V30 28 1 16 27
M  V30 29 1 17 28
M  V30 30 1 18 29
M  V30 31 1 18 30
M  V30 32 1 18 31
M  V30 33 1 19 32
M  V30 34 1 19 33
M  V30 35 1 19 34
M  V30 END BOND
M  V30 END CTAB
M  END
>  <Molecule Name>
LPQUJAANWFHCJV-QZINJFTLNA-N

>  <hs_clash>
2.0

>  <hs_total>
168.18177851500934

>  <Total Molweight>
297.402

>  <cLogP>
2.8485

>  <H-Acceptors>
5

>  <H-Donors>
2

>  <Polar Surface Area>
121.7

>  <Non-H Atoms>
19

>  <sp3-Atoms>
4

$$$$
SVWJDTLRFATPCQ-QWOVJGMINA-N
Actelion Java MolfileCreator 2.0

  0  0  0  0  0  0              0 V3000
M  V30 BEGIN CTAB
M  V30 COUNTS 46 49 0 0 0
M  V30 BEGIN ATOM
M  V30 1 S 28.1774 7.0185 64.0756 0
M  V30 2 C 28.9138 6.0165 65.2434 0
M  V30 3 C 27.3052 5.6611 63.5087 0
M  V30 4 N 28.5109 4.7134 65.2267 0
M  V30 5 N 29.8536 6.4823 66.1332 0
M  V30 6 C 27.5933 4.5116 64.2456 0
M  V30 7 C 26.36 5.7797 62.3452 0
M  V30 8 C 30.4682 7.7987 65.905 0
M  V30 9 N 27.0403 3.2843 64.0206 0
M  V30 10 O 25.7181 4.6456 61.9574 0
M  V30 11 C 26.1598 6.9184 61.6366 0
M  V30 12 C 31.5237 7.7494 64.7479 0
M  V30 13 C 31.137 8.3101 67.2095 0
M  V30 14 C 25.9314 8.1943 62.3365 0
M  V30 15 C 26.1964 6.9346 60.1771 0
M  V30 16 C 32.159 9.142 64.5082 0
M  V30 17 C 31.7897 9.6996 66.9957 0
M  V30 18 C 25.7561 9.4235 61.6056 0
M  V30 19 C 26.0195 8.1541 59.4268 0
M  V30 20 C 32.7881 9.7024 65.8101 0
M  V30 21 C 25.8041 9.403 60.1126 0
M  V30 22 C 25.539 10.6827 62.2988 0
M  V30 23 C 25.6361 10.641 59.3793 0
M  V30 24 C 25.3762 11.9026 61.5404 0
M  V30 25 C 25.4249 11.8809 60.095 0
M  V30 26 H 30.4432 5.7905 66.5498 0
M  V30 27 H 29.6857 8.5169 65.6187 0
M  V30 28 H 27.4174 2.6242 64.6702 0
M  V30 29 H 26.3925 3.3442 63.2613 0
M  V30 30 H 32.316 7.035 65.0157 0
M  V30 31 H 31.0276 7.4178 63.8241 0
M  V30 32 H 31.9114 7.5939 67.5205 0
M  V30 33 H 30.3734 8.39 67.9973 0
M  V30 34 H 25.8943 8.2086 63.4157 0
M  V30 35 H 26.3597 6.009 59.6454 0
M  V30 36 H 32.942 9.0519 63.7413 0
M  V30 37 H 31.3807 9.8362 64.1584 0
M  V30 38 H 32.3277 9.9828 67.9123 0
M  V30 39 H 30.9976 10.4356 66.7932 0
M  V30 40 H 26.0488 8.1311 58.3477 0
M  V30 41 H 33.6567 9.0832 66.0781 0
M  V30 42 H 33.117 10.7362 65.6275 0
M  V30 43 H 25.4994 10.707 63.378 0
M  V30 44 H 25.6684 10.6388 58.2999 0
M  V30 45 H 25.2169 12.8377 62.0571 0
M  V30 46 H 25.3021 12.8013 59.5436 0
M  V30 END ATOM
M  V30 BEGIN BOND
M  V30 1 1 1 2
M  V30 2 1 1 3
M  V30 3 2 2 4
M  V30 4 1 2 5
M  V30 5 2 3 6
M  V30 6 1 3 7
M  V30 7 1 5 8
M  V30 8 1 6 9
M  V30 9 2 7 10
M  V30 10 1 7 11
M  V30 11 1 8 12
M  V30 12 1 8 13
M  V30 13 2 11 14
M  V30 14 1 11 15
M  V30 15 1 12 16
M  V30 16 1 13 17
M  V30 17 1 14 18
M  V30 18 2 15 19
M  V30 19 1 16 20
M  V30 20 1 18 21
M  V30 21 2 18 22
M  V30 22 2 21 23
M  V30 23 1 22 24
M  V30 24 1 23 25
M  V30 25 1 4 6
M  V30 26 1 17 20
M  V30 27 1 19 21
M  V30 28 2 24 25
M  V30 29 1 5 26
M  V30 30 1 8 27
M  V30 31 1 9 28
M  V30 32 1 9 29
M  V30 33 1 12 30
M  V30 34 1 12 31
M  V30 35 1 13 32
M  V30 36 1 13 33
M  V30 37 1 14 34
M  V30 38 1 15 35
M  V30 39 1 16 36
M  V30 40 1 16 37
M  V30 41 1 17 38
M  V30 42 1 17 39
M  V30 43 1 19 40
M  V30 44 1 20 41
M  V30 45 1 20 42
M  V30 46 1 22 43
M  V30 47 1 23 44
M  V30 48 1 24 45
M  V30 49 1 25 46
M  V30 END BOND
M  V30 END CTAB
M  END
>  <Molecule Name>
SVWJDTLRFATPCQ-QWOVJGMINA-N

>  <hs_clash>
0.0

>  <hs_total>
167.30553469269472

>  <Total Molweight>
351.473

>  <cLogP>
4.5683

>  <H-Acceptors>
4

>  <H-Donors>
2

>  <Polar Surface Area>
96.25

>  <Non-H Atoms>
25

>  <sp3-Atoms>
6

$$$$
LDXLQEXLXZCYSR-MTNXHNGONA-O
Actelion Java MolfileCreator 2.0

  0  0  0  0  0  0              0 V3000
M  V30 BEGIN CTAB
M  V30 COUNTS 57 59 0 0 0
M  V30 BEGIN ATOM
M  V30 1 S 32.3919 10.7508 64.4396 0
M  V30 2 O 32.7321 11.5426 65.7813 0
M  V30 3 O 33.7254 10.3132 63.6898 0
M  V30 4 N 31.4638 11.7747 63.3854 0
M  V30 5 C 31.4256 9.3609 64.8043 0
M  V30 6 C 30.9798 12.9913 64.0711 0
M  V30 7 C 30.4804 8.9147 63.8545 0
M  V30 8 C 31.6076 8.703 66.0435 0
M  V30 9 C 30.1847 13.8788 63.1114 0
M  V30 10 C 29.6966 7.7774 64.1496 0
M  V30 11 C 30.8187 7.5626 66.3355 0
M  V30 12 O 29.7349 15.0569 63.8087 0
M  V30 13 C 29.855 7.0861 65.3943 0
M  V30 14 C 28.9693 15.9779 62.9963 0
M  V30 15 N 29.0886 5.912 65.763 0
M  V30 16 C 28.0947 5.071 65.1352 0
M  V30 17 N 27.1927 5.7292 64.3875 0
M  V30 18 N 28.114 3.749 65.315 0
M  V30 19 C 26.2046 5.0376 63.7446 0
M  V30 20 C 27.1676 3.0093 64.7096 0
M  V30 21 C 25.2391 5.7485 62.9325 0
M  V30 22 C 26.1637 3.5968 63.8979 0
M  V30 23 N 25.4428 6.9643 62.1879 0
M  V30 24 C 23.8865 5.314 62.7374 0
M  V30 25 C 24.1346 7.0839 61.636 0
M  V30 26 C 26.7034 7.8212 62.0373 0
M  V30 27 N 23.1738 6.1509 61.9192 0 CHG=1
M  V30 28 C 23.6688 8.2171 60.6965 0
M  V30 29 C 27.211 7.8472 60.5821 0
M  V30 30 C 26.4891 9.2629 62.5712 0
M  V30 31 H 31.5011 11.6968 62.3891 0
M  V30 32 H 30.3319 12.6982 64.9107 0
M  V30 33 H 31.8422 13.5567 64.4538 0
M  V30 34 H 30.3584 9.4359 62.9166 0
M  V30 35 H 32.3353 9.0643 66.7552 0
M  V30 36 H 30.8263 14.1743 62.2682 0
M  V30 37 H 29.3145 13.3225 62.7328 0
M  V30 38 H 28.9714 7.4258 63.4304 0
M  V30 39 H 30.9471 7.0494 67.2771 0
M  V30 40 H 28.6686 16.8431 63.6061 0
M  V30 41 H 29.5849 16.3209 62.1519 0
M  V30 42 H 28.0717 15.4702 62.6135 0
M  V30 43 H 29.6364 5.3528 66.3852 0
M  V30 44 H 27.1719 1.938 64.8456 0
M  V30 45 H 25.4043 2.9986 63.4161 0
M  V30 46 H 23.4736 4.423 63.1873 0
M  V30 47 H 27.491 7.3605 62.6514 0
M  V30 48 H 22.2226 6.0959 61.6153 0
M  V30 49 H 24.2857 8.2159 59.7859 0
M  V30 50 H 22.6145 8.0587 60.4253 0
M  V30 51 H 23.7739 9.185 61.2091 0
M  V30 52 H 28.1144 8.4717 60.5196 0
M  V30 53 H 27.45 6.8232 60.2593 0
M  V30 54 H 26.4306 8.2651 59.9291 0
M  V30 55 H 27.4152 9.8429 62.4449 0
M  V30 56 H 25.6752 9.7448 62.0096 0
M  V30 57 H 26.2245 9.2232 63.6384 0
M  V30 END ATOM
M  V30 BEGIN BOND
M  V30 1 2 1 2
M  V30 2 2 1 3
M  V30 3 1 1 4
M  V30 4 1 1 5
M  V30 5 1 4 6
M  V30 6 2 5 7
M  V30 7 1 5 8
M  V30 8 1 6 9
M  V30 9 1 7 10
M  V30 10 2 8 11
M  V30 11 1 9 12
M  V30 12 2 10 13
M  V30 13 1 12 14
M  V30 14 1 13 15
M  V30 15 1 15 16
M  V30 16 2 16 17
M  V30 17 1 16 18
M  V30 18 1 17 19
M  V30 19 2 18 20
M  V30 20 1 19 21
M  V30 21 2 19 22
M  V30 22 1 21 23
M  V30 23 2 21 24
M  V30 24 1 23 25
M  V30 25 1 23 26
M  V30 26 1 24 27
M  V30 27 1 25 28
M  V30 28 1 26 29
M  V30 29 1 26 30
M  V30 30 1 11 13
M  V30 31 1 20 22
M  V30 32 2 25 27
M  V30 33 1 4 31
M  V30 34 1 6 32
M  V30 35 1 6 33
M  V30 36 1 7 34
M  V30 37 1 8 35
M  V30 38 1 9 36
M  V30 39 1 9 37
M  V30 40 1 10 38
M  V30 41 1 11 39
M  V30 42 1 14 40
M  V30 43 1 14 41
M  V30 44 1 14 42
M  V30 45 1 15 43
M  V30 46 1 20 44
M  V30 47 1 22 45
M  V30 48 1 24 46
M  V30 49 1 26 47
M  V30 50 1 27 48
M  V30 51 1 28 49
M  V30 52 1 28 50
M  V30 53 1 28 51
M  V30 54 1 29 52
M  V30 55 1 29 53
M  V30 56 1 29 54
M  V30 57 1 30 55
M  V30 58 1 30 56
M  V30 59 1 30 57
M  V30 END BOND
M  V30 END CTAB
M  END
>  <Molecule Name>
LDXLQEXLXZCYSR-MTNXHNGONA-O

>  <hs_clash>
10.0

>  <hs_total>
166.9215795946046

>  <Total Molweight>
431.539

>  <cLogP>
0.1624

>  <H-Acceptors>
9

>  <H-Donors>
3

>  <Polar Surface Area>
120.66

>  <Non-H Atoms>
30

>  <sp3-Atoms>
9

$$$$
TZFLUWBMBJLZQO-BDGWVKIONA-N
Actelion Java MolfileCreator 2.0

  0  0  0  0  0  0              0 V3000
M  V30 BEGIN CTAB
M  V30 COUNTS 38 40 0 0 0
M  V30 BEGIN ATOM
M  V30 1 F 24.2353 4.9535 61.7807 0
M  V30 2 C 25.2699 5.2043 62.6043 0
M  V30 3 C 25.6678 4.1966 63.4909 0
M  V30 4 C 25.9449 6.4354 62.57 0
M  V30 5 F 24.9917 3.0329 63.5161 0
M  V30 6 C 26.7388 4.4051 64.3586 0
M  V30 7 C 25.6028 7.3962 61.6001 0
M  V30 8 C 27.054 6.6201 63.4191 0
M  V30 9 N 27.3603 3.6033 65.2302 0
M  V30 10 C 27.4205 5.6192 64.3382 0
M  V30 11 C 24.2772 7.8013 61.3849 0
M  V30 12 C 26.5998 7.9134 60.77 0
M  V30 13 N 28.2912 4.1975 65.7864 0
M  V30 14 C 28.4073 5.4347 65.3055 0
M  V30 15 C 23.9721 8.7391 60.3933 0
M  V30 16 C 26.3018 8.8582 59.7844 0
M  V30 17 N 29.4315 6.234 65.6421 0
M  V30 18 C 24.983 9.2712 59.5915 0
M  V30 19 C 29.431 7.5791 65.6673 0
M  V30 20 O 28.4801 8.3042 65.3866 0
M  V30 21 C 30.7604 8.2107 66.106 0
M  V30 22 C 31.6898 8.4141 64.9106 0
M  V30 23 C 32.6984 9.5252 65.1984 0
M  V30 24 H 27.6259 7.5345 63.3644 0
M  V30 25 H 27.1065 2.6526 65.4081 0
M  V30 26 H 23.4851 7.3858 61.9905 0
M  V30 27 H 27.6187 7.5777 60.8923 0
M  V30 28 H 22.9492 9.0534 60.2471 0
M  V30 29 H 27.0915 9.2684 59.1726 0
M  V30 30 H 30.2849 5.7823 65.9019 0
M  V30 31 H 24.7461 9.9968 58.8274 0
M  V30 32 H 30.5587 9.1852 66.575 0
M  V30 33 H 31.2507 7.548 66.8344 0
M  V30 34 H 32.2303 7.4779 64.7093 0
M  V30 35 H 31.0909 8.6886 64.0295 0
M  V30 36 H 33.3576 9.657 64.3278 0
M  V30 37 H 32.1619 10.4648 65.3976 0
M  V30 38 H 33.3014 9.2541 66.0774 0
M  V30 END ATOM
M  V30 BEGIN BOND
M  V30 1 1 1 2
M  V30 2 2 2 3
M  V30 3 1 2 4
M  V30 4 1 3 5
M  V30 5 1 3 6
M  V30 6 1 4 7
M  V30 7 2 4 8
M  V30 8 1 6 9
M  V30 9 2 6 10
M  V30 10 2 7 11
M  V30 11 1 7 12
M  V30 12 1 9 13
M  V30 13 1 10 14
M  V30 14 1 11 15
M  V30 15 2 12 16
M  V30 16 1 14 17
M  V30 17 2 15 18
M  V30 18 1 17 19
M  V30 19 2 19 20
M  V30 20 1 19 21
M  V30 21 1 21 22
M  V30 22 1 22 23
M  V30 23 1 8 10
M  V30 24 2 13 14
M  V30 25 1 16 18
M  V30 26 1 8 24
M  V30 27 1 9 25
M  V30 28 1 11 26
M  V30 29 1 12 27
M  V30 30 1 15 28
M  V30 31 1 16 29
M  V30 32 1 17 30
M  V30 33 1 18 31
M  V30 34 1 21 32
M  V30 35 1 21 33
M  V30 36 1 22 34
M  V30 37 1 22 35
M  V30 38 1 23 36
M  V30 39 1 23 37
M  V30 40 1 23 38
M  V30 END BOND
M  V30 END CTAB
M  END
>  <Molecule Name>
TZFLUWBMBJLZQO-BDGWVKIONA-N

>  <hs_clash>
0.0

>  <hs_total>
166.5790363754697

>  <Total Molweight>
315.322

>  <cLogP>
3.6948

>  <H-Acceptors>
4

>  <H-Donors>
2

>  <Polar Surface Area>
57.78

>  <Non-H Atoms>
23

>  <sp3-Atoms>
3

$$$$
DNIAIAOWBNWMBV-HCKMINDGNA-N
Actelion Java MolfileCreator 2.0

  0  0  0  0  0  0              0 V3000
M  V30 BEGIN CTAB
M  V30 COUNTS 28 30 0 0 0
M  V30 BEGIN ATOM
M  V30 1 Cl 32.9419 10.7495 63.4949 0
M  V30 2 C 32.3661 9.8569 64.8455 0
M  V30 3 C 31.6606 8.6629 64.6468 0
M  V30 4 C 32.6033 10.3196 66.1449 0
M  V30 5 C 31.1886 7.9281 65.746 0
M  V30 6 C 32.1344 9.5867 67.2385 0
M  V30 7 N 30.4601 6.6791 65.566 0
M  V30 8 C 31.431 8.3986 67.0374 0
M  V30 9 C 29.2071 6.7119 64.9391 0
M  V30 10 N 28.7673 7.853 64.2828 0
M  V30 11 C 28.283 5.5816 64.91 0
M  V30 12 C 27.5366 7.91 63.6448 0
M  V30 13 N 28.3699 4.3271 65.427 0
M  V30 14 C 27.072 5.7923 64.2176 0
M  V30 15 N 26.6552 6.9242 63.5742 0
M  V30 16 C 27.2425 3.7225 65.0623 0
M  V30 17 N 26.3931 4.5591 64.3137 0
M  V30 18 C 25.0584 4.1612 63.7372 0
M  V30 19 H 31.4793 8.3062 63.6437 0
M  V30 20 H 33.1468 11.2395 66.3022 0
M  V30 21 H 32.3166 9.9413 68.2421 0
M  V30 22 H 30.7197 5.8767 66.1033 0
M  V30 23 H 31.0713 7.8386 67.8881 0
M  V30 24 H 27.2739 8.8404 63.1636 0
M  V30 25 H 27.0043 2.6997 65.3137 0
M  V30 26 H 24.63 5.0098 63.1836 0
M  V30 27 H 25.1931 3.3091 63.0553 0
M  V30 28 H 24.3776 3.8745 64.5525 0
M  V30 END ATOM
M  V30 BEGIN BOND
M  V30 1 1 1 2
M  V30 2 2 2 3
M  V30 3 1 2 4
M  V30 4 1 3 5
M  V30 5 2 4 6
M  V30 6 1 5 7
M  V30 7 2 5 8
M  V30 8 1 7 9
M  V30 9 2 9 10
M  V30 10 1 9 11
M  V30 11 1 10 12
M  V30 12 1 11 13
M  V30 13 2 11 14
M  V30 14 2 12 15
M  V30 15 2 13 16
M  V30 16 1 14 17
M  V30 17 1 17 18
M  V30 18 1 6 8
M  V30 19 1 14 15
M  V30 20 1 16 17
M  V30 21 1 3 19
M  V30 22 1 4 20
M  V30 23 1 6 21
M  V30 24 1 7 22
M  V30 25 1 8 23
M  V30 26 1 12 24
M  V30 27 1 16 25
M  V30 28 1 18 26
M  V30 29 1 18 27
M  V30 30 1 18 28
M  V30 END BOND
M  V30 END CTAB
M  END
>  <Molecule Name>
DNIAIAOWBNWMBV-HCKMINDGNA-N

>  <hs_clash>
0.0

>  <hs_total>
164.94007903036928

>  <Total Molweight>
259.699

>  <cLogP>
2.5995

>  <H-Acceptors>
5

>  <H-Donors>
1

>  <Polar Surface Area>
55.63

>  <Non-H Atoms>
18

>  <sp3-Atoms>
1

$$$$
WMZYZYFPPQOFKY-WYCIUFAENA-N
Actelion Java MolfileCreator 2.0

  0  0  0  0  0  0              0 V3000
M  V30 BEGIN CTAB
M  V30 COUNTS 23 24 0 0 0
M  V30 BEGIN ATOM
M  V30 1 O 27.9891 7.3521 64.3764 0
M  V30 2 C 28.4288 6.376 64.9108 0
M  V30 3 N 29.5871 6.3793 65.597 0
M  V30 4 C 27.7408 5.0841 64.8028 0
M  V30 5 C 30.5255 7.4173 65.6429 0
M  V30 6 N 28.2194 4.0214 65.3943 0
M  V30 7 C 26.5907 4.803 64.0768 0
M  V30 8 C 30.8004 8.174 64.5031 0
M  V30 9 C 31.2033 7.7013 66.8248 0
M  V30 10 N 27.3488 3.0351 65.0677 0
M  V30 11 C 26.3631 3.4878 64.2733 0
M  V30 12 C 31.7245 9.199 64.5551 0
M  V30 13 C 32.1215 8.7274 66.8689 0
M  V30 14 C 32.386 9.4724 65.7371 0
M  V30 15 H 29.7984 5.5582 66.1269 0
M  V30 16 H 26.0047 5.4892 63.4832 0
M  V30 17 H 30.2882 7.9574 63.5773 0
M  V30 18 H 31.0084 7.1153 67.711 0
M  V30 19 H 27.4295 2.0883 65.3791 0
M  V30 20 H 25.5455 2.9092 63.8698 0
M  V30 21 H 31.9299 9.7867 63.6726 0
M  V30 22 H 32.636 8.95 67.7921 0
M  V30 23 H 33.1122 10.2708 65.7756 0
M  V30 END ATOM
M  V30 BEGIN BOND
M  V30 1 2 1 2
M  V30 2 1 2 3
M  V30 3 1 2 4
M  V30 4 1 3 5
M  V30 5 2 4 6
M  V30 6 1 4 7
M  V30 7 2 5 8
M  V30 8 1 5 9
M  V30 9 1 6 10
M  V30 10 2 7 11
M  V30 11 1 8 12
M  V30 12 2 9 13
M  V30 13 2 12 14
M  V30 14 1 10 11
M  V30 15 1 13 14
M  V30 16 1 3 15
M  V30 17 1 7 16
M  V30 18 1 8 17
M  V30 19 1 9 18
M  V30 20 1 10 19
M  V30 21 1 11 20
M  V30 22 1 12 21
M  V30 23 1 13 22
M  V30 24 1 14 23
M  V30 END BOND
M  V30 END CTAB
M  END
>  <Molecule Name>
WMZYZYFPPQOFKY-WYCIUFAENA-N

>  <hs_clash>
0.0

>  <hs_total>
164.43992528813374

>  <Total Molweight>
187.201

>  <cLogP>
0.7547

>  <H-Acceptors>
4

>  <H-Donors>
2

>  <Polar Surface Area>
57.78

>  <Non-H Atoms>
14

>  <sp3-Atoms>
0

$$$$
DMSXJUBZGKCYAA-QWOVJGMINA-N
Actelion Java MolfileCreator 2.0

  0  0  0  0  0  0              0 V3000
M  V30 BEGIN CTAB
M  V30 COUNTS 37 39 0 0 0
M  V30 BEGIN ATOM
M  V30 1 S 28.495 6.9593 63.9311 0
M  V30 2 C 29.2201 5.9277 65.0807 0
M  V30 3 C 27.4443 5.7073 63.4672 0
M  V30 4 N 28.6786 4.6782 65.1192 0
M  V30 5 N 30.2372 6.2627 65.8907 0
M  V30 6 C 27.676 4.5472 64.2159 0
M  V30 7 C 26.4158 5.8983 62.3574 0
M  V30 8 C 31.0748 7.4024 65.8434 0
M  V30 9 N 26.9917 3.3772 64.0692 0
M  V30 10 O 25.7112 4.8016 62.0185 0
M  V30 11 C 26.2068 7.0835 61.6394 0
M  V30 12 C 31.3958 8.1953 64.6304 0
M  V30 13 C 31.6729 7.8385 67.0931 0
M  V30 14 C 26.1732 8.3953 62.2994 0
M  V30 15 C 26.0111 7.0583 60.1821 0
M  V30 16 C 32.2634 9.3493 64.6981 0
M  V30 17 C 32.5393 8.9911 67.152 0
M  V30 18 C 25.9596 9.642 61.5648 0
M  V30 19 C 25.7985 8.2727 59.4418 0
M  V30 20 C 32.8296 9.7415 65.9614 0
M  V30 21 C 25.773 9.5427 60.1167 0
M  V30 22 C 25.9258 10.9248 62.2052 0
M  V30 23 F 26.2195 10.8202 63.5607 0
M  V30 24 F 24.6736 11.4879 62.095 0
M  V30 25 F 26.8462 11.7886 61.6251 0
M  V30 26 H 30.7214 5.4578 66.2335 0
M  V30 27 H 27.3509 2.6979 64.7088 0
M  V30 28 H 26.2969 3.484 63.3577 0
M  V30 29 H 30.973 7.9047 63.68 0
M  V30 30 H 31.4644 7.2878 67.9987 0
M  V30 31 H 26.3113 8.4413 63.3698 0
M  V30 32 H 26.0267 6.1132 59.66 0
M  V30 33 H 32.4855 9.9145 63.805 0
M  V30 34 H 32.9716 9.2912 68.0954 0
M  V30 35 H 25.6571 8.2309 58.3721 0
M  V30 36 H 33.4763 10.6049 66.0151 0
M  V30 37 H 25.6126 10.4431 59.5421 0
M  V30 END ATOM
M  V30 BEGIN BOND
M  V30 1 1 1 2
M  V30 2 1 1 3
M  V30 3 2 2 4
M  V30 4 1 2 5
M  V30 5 2 3 6
M  V30 6 1 3 7
M  V30 7 1 5 8
M  V30 8 1 6 9
M  V30 9 2 7 10
M  V30 10 1 7 11
M  V30 11 2 8 12
M  V30 12 1 8 13
M  V30 13 2 11 14
M  V30 14 1 11 15
M  V30 15 1 12 16
M  V30 16 2 13 17
M  V30 17 1 14 18
M  V30 18 2 15 19
M  V30 19 2 16 20
M  V30 20 2 18 21
M  V30 21 1 18 22
M  V30 22 1 22 23
M  V30 23 1 22 24
M  V30 24 1 22 25
M  V30 25 1 4 6
M  V30 26 1 17 20
M  V30 27 1 19 21
M  V30 28 1 5 26
M  V30 29 1 9 27
M  V30 30 1 9 28
M  V30 31 1 12 29
M  V30 32 1 13 30
M  V30 33 1 14 31
M  V30 34 1 15 32
M  V30 35 1 16 33
M  V30 36 1 17 34
M  V30 37 1 19 35
M  V30 38 1 20 36
M  V30 39 1 21 37
M  V30 END BOND
M  V30 END CTAB
M  END
>  <Molecule Name>
DMSXJUBZGKCYAA-QWOVJGMINA-N

>  <hs_clash>
0.0

>  <hs_total>
162.70439626855995

>  <Total Molweight>
363.362

>  <cLogP>
4.5499

>  <H-Acceptors>
4

>  <H-Donors>
2

>  <Polar Surface Area>
96.25

>  <Non-H Atoms>
25

>  <sp3-Atoms>
1

$$$$
KPDKAUHATKQTCS-MNJZFBABNA-O
Actelion Java MolfileCreator 2.0

  0  0  0  0  0  0              0 V3000
M  V30 BEGIN CTAB
M  V30 COUNTS 45 48 0 0 0
M  V30 BEGIN ATOM
M  V30 1 O 31.5614 10.4154 71.7706 0
M  V30 2 C 31.1694 11.4953 71.2911 0
M  V30 3 N 30.7894 11.7374 70.0109 0
M  V30 4 N 31.0897 12.5599 72.0456 0
M  V30 5 C 30.7304 10.7926 68.8302 0
M  V30 6 C 30.4048 13.1712 69.9125 0
M  V30 7 C 30.6156 13.7328 71.325 0
M  V30 8 C 31.0999 9.405 68.9395 0
M  V30 9 C 30.2959 11.2685 67.5426 0
M  V30 10 C 31.0365 8.5447 67.8326 0
M  V30 11 C 30.2332 10.4133 66.4358 0
M  V30 12 C 30.6026 9.0374 66.5698 0
M  V30 13 C 30.5508 8.0489 65.391 0 CFG=2
M  V30 14 C 29.1384 7.4364 65.2326 0
M  V30 15 C 30.9984 8.6977 64.0466 0
M  V30 16 O 28.1942 8.1164 64.7976 0
M  V30 17 N 29.0317 6.1379 65.5628 0 CHG=1
M  V30 18 C 27.9211 5.2154 65.4967 0
M  V30 19 N 28.0344 3.9127 65.8915 0
M  V30 20 C 26.6276 5.4458 65.0325 0
M  V30 21 N 26.8469 3.3339 65.6785 0
M  V30 22 C 25.9627 4.2486 65.1496 0
M  V30 23 C 24.51 3.9343 64.7646 0
M  V30 24 C 23.6285 5.1497 64.4169 0
M  V30 25 C 23.8139 3.9633 63.4421 0
M  V30 26 H 31.3295 12.5682 73.0167 0
M  V30 27 H 31.0452 13.6951 69.1879 0
M  V30 28 H 29.3517 13.2699 69.6097 0
M  V30 29 H 31.3674 14.5357 71.3284 0
M  V30 30 H 29.6738 14.1105 71.7502 0
M  V30 31 H 31.4321 9.019 69.8921 0
M  V30 32 H 30.0131 12.3049 67.4286 0
M  V30 33 H 31.3171 7.5075 67.9392 0
M  V30 34 H 29.9049 10.7928 65.4795 0
M  V30 35 H 31.2483 7.2274 65.6113 0
M  V30 36 H 32.0021 9.1316 64.1646 0
M  V30 37 H 31.0207 7.9302 63.2591 0
M  V30 38 H 30.2874 9.4893 63.7671 0
M  V30 39 H 29.8752 5.7368 65.9199 0
M  V30 40 H 26.1345 6.2174 65.6423 0
M  V30 41 H 26.6509 5.7686 63.9814 0
M  V30 42 H 22.6669 5.3035 64.9287 0
M  V30 43 H 24.088 6.125 64.1989 0
M  V30 44 H 24.397 4.0987 62.5193 0
M  V30 45 H 22.976 3.2772 63.2491 0
M  V30 END ATOM
M  V30 BEGIN BOND
M  V30 1 2 1 2
M  V30 2 1 2 3
M  V30 3 1 2 4
M  V30 4 1 3 5
M  V30 5 1 3 6
M  V30 6 1 4 7
M  V30 7 2 5 8
M  V30 8 1 5 9
M  V30 9 1 8 10
M  V30 10 2 9 11
M  V30 11 2 10 12
M  V30 12 1 12 13
M  V30 13 1 13 14
M  V30 14 1 13 15
M  V30 15 2 14 16
M  V30 16 1 14 17
M  V30 17 2 17 18
M  V30 18 1 18 19
M  V30 19 1 18 20
M  V30 20 2 19 21
M  V30 21 1 20 22
M  V30 22 2 22 23
M  V30 23 1 23 24
M  V30 24 1 23 25
M  V30 25 1 6 7
M  V30 26 1 11 12
M  V30 27 1 21 22
M  V30 28 1 24 25
M  V30 29 1 4 26
M  V30 30 1 6 27
M  V30 31 1 6 28
M  V30 32 1 7 29
M  V30 33 1 7 30
M  V30 34 1 8 31
M  V30 35 1 9 32
M  V30 36 1 10 33
M  V30 37 1 11 34
M  V30 38 1 13 35
M  V30 39 1 15 36
M  V30 40 1 15 37
M  V30 41 1 15 38
M  V30 42 1 17 39
M  V30 43 1 20 40
M  V30 44 1 20 41
M  V30 45 1 24 42
M  V30 46 1 24 43
M  V30 47 1 25 44
M  V30 48 1 25 45
M  V30 END BOND
M  V30 BEGIN COLLECTION
M  V30 MDLV30/STERAC1 ATOMS=(1 13)
M  V30 END COLLECTION
M  V30 END CTAB
M  END
>  <Molecule Name>
KPDKAUHATKQTCS-MNJZFBABNA-O

>  <hs_clash>
32.0

>  <hs_total>
162.4714171475451

>  <Total Molweight>
338.390

>  <cLogP>
1.2272

>  <H-Acceptors>
7

>  <H-Donors>
2

>  <Polar Surface Area>
88.1

>  <Non-H Atoms>
25

>  <sp3-Atoms>
7

$$$$
NMAZGYDYIYLSLJ-SDRQFZCRNA-N
Actelion Java MolfileCreator 2.0

  0  0  0  0  0  0              0 V3000
M  V30 BEGIN CTAB
M  V30 COUNTS 50 53 0 0 0
M  V30 BEGIN ATOM
M  V30 1 S 33.4075 10.9014 64.486 0
M  V30 2 O 33.8625 11.2637 65.8253 0
M  V30 3 O 34.5757 10.3755 63.7618 0
M  V30 4 N 32.7848 12.1237 63.6527 0
M  V30 5 C 32.2387 9.6662 64.7269 0
M  V30 6 C 32.014 9.1717 66.006 0
M  V30 7 C 31.5345 9.2375 63.5958 0
M  V30 8 C 31.0617 8.1616 66.1983 0
M  V30 9 C 30.5972 8.2292 63.8 0
M  V30 10 C 30.3473 7.694 65.0827 0
M  V30 11 N 29.422 6.6985 65.2678 0
M  V30 12 C 28.3162 6.4796 64.4801 0
M  V30 13 N 27.7159 5.2578 64.4431 0
M  V30 14 C 27.7088 7.5107 63.7503 0
M  V30 15 N 28.0751 4.1486 65.0633 0
M  V30 16 C 26.6307 4.9895 63.6991 0
M  V30 17 C 26.5882 7.201 62.9723 0
M  V30 18 C 27.2246 3.1781 64.6745 0
M  V30 19 N 26.0487 5.9351 62.9439 0
M  V30 20 N 26.2984 3.6899 63.8248 0
M  V30 21 O 25.9965 8.185 62.2364 0
M  V30 22 C 26.2901 7.9991 60.8496 0
M  V30 23 C 26.0917 9.3385 60.1211 0
M  V30 24 C 24.9065 10.1698 60.6299 0
M  V30 25 C 25.9487 9.0933 58.6168 0
M  V30 26 C 24.864 11.5068 59.8799 0
M  V30 27 C 25.9473 10.4366 57.8875 0
M  V30 28 C 24.7499 11.2594 58.3696 0
M  V30 29 H 31.7996 12.1728 63.8175 0
M  V30 30 H 32.9528 11.9826 62.6774 0
M  V30 31 H 32.5688 9.5633 66.8459 0
M  V30 32 H 31.7084 9.6652 62.6196 0
M  V30 33 H 30.8813 7.7519 67.1813 0
M  V30 34 H 30.0458 7.8455 62.9543 0
M  V30 35 H 29.8131 5.8588 65.6446 0
M  V30 36 H 28.0956 8.5184 63.7877 0
M  V30 37 H 27.2726 2.1469 64.9918 0
M  V30 38 H 27.3315 7.6649 60.7335 0
M  V30 39 H 25.6127 7.2432 60.4259 0
M  V30 40 H 27.003 9.9352 60.2741 0
M  V30 41 H 23.9699 9.6202 60.4541 0
M  V30 42 H 25.0247 10.357 61.7075 0
M  V30 43 H 26.7914 8.4826 58.2618 0
M  V30 44 H 25.0039 8.566 58.4182 0
M  V30 45 H 23.9941 12.0882 60.2204 0
M  V30 46 H 25.7855 12.0705 60.088 0
M  V30 47 H 25.8676 10.2685 56.8035 0
M  V30 48 H 26.8796 10.9774 58.1073 0
M  V30 49 H 23.8204 10.7102 58.1587 0
M  V30 50 H 24.7333 12.2243 57.8417 0
M  V30 END ATOM
M  V30 BEGIN BOND
M  V30 1 2 1 2
M  V30 2 2 1 3
M  V30 3 1 1 4
M  V30 4 1 1 5
M  V30 5 2 5 6
M  V30 6 1 5 7
M  V30 7 1 6 8
M  V30 8 2 7 9
M  V30 9 2 8 10
M  V30 10 1 10 11
M  V30 11 1 11 12
M  V30 12 1 12 13
M  V30 13 2 12 14
M  V30 14 1 13 15
M  V30 15 1 13 16
M  V30 16 1 14 17
M  V30 17 2 15 18
M  V30 18 1 16 19
M  V30 19 2 16 20
M  V30 20 1 17 21
M  V30 21 1 21 22
M  V30 22 1 22 23
M  V30 23 1 23 24
M  V30 24 1 23 25
M  V30 25 1 24 26
M  V30 26 1 25 27
M  V30 27 1 26 28
M  V30 28 1 9 10
M  V30 29 2 17 19
M  V30 30 1 18 20
M  V30 31 1 27 28
M  V30 32 1 4 29
M  V30 33 1 4 30
M  V30 34 1 6 31
M  V30 35 1 7 32
M  V30 36 1 8 33
M  V30 37 1 9 34
M  V30 38 1 11 35
M  V30 39 1 14 36
M  V30 40 1 18 37
M  V30 41 1 22 38
M  V30 42 1 22 39
M  V30 43 1 23 40
M  V30 44 1 24 41
M  V30 45 1 24 42
M  V30 46 1 25 43
M  V30 47 1 25 44
M  V30 48 1 26 45
M  V30 49 1 26 46
M  V30 50 1 27 47
M  V30 51 1 27 48
M  V30 52 1 28 49
M  V30 53 1 28 50
M  V30 END BOND
M  V30 END CTAB
M  END
>  <Molecule Name>
NMAZGYDYIYLSLJ-SDRQFZCRNA-N

>  <hs_clash>
9.0

>  <hs_total>
161.61043106742207

>  <Total Molweight>
402.478

>  <cLogP>
1.9369

>  <H-Acceptors>
9

>  <H-Donors>
2

>  <Polar Surface Area>
132.88

>  <Non-H Atoms>
28

>  <sp3-Atoms>
9

$$$$
LXRVAGIYXNQOKP-WYUMXYHSNA-N
Actelion Java MolfileCreator 2.0

  0  0  0  0  0  0              0 V3000
M  V30 BEGIN CTAB
M  V30 COUNTS 31 33 0 0 0
M  V30 BEGIN ATOM
M  V30 1 N 29.0961 8.1271 64.1139 0
M  V30 2 C 29.4299 6.9952 64.7895 0
M  V30 3 C 27.8964 8.1496 63.4532 0
M  V30 4 N 30.6162 6.8868 65.4874 0
M  V30 5 C 28.5176 5.8292 64.8169 0
M  V30 6 C 26.9792 7.1014 63.4135 0
M  V30 7 C 31.6386 7.916 65.3613 0
M  V30 8 N 28.6197 4.6027 65.4409 0
M  V30 9 N 27.2802 5.9373 64.103 0
M  V30 10 C 31.696 8.8524 66.5416 0
M  V30 11 C 27.4711 3.8932 65.0524 0
M  V30 12 C 26.6025 4.7171 64.2583 0
M  V30 13 C 31.5242 10.2355 66.3585 0
M  V30 14 C 31.9168 8.3748 67.8342 0
M  V30 15 C 25.2861 4.4077 63.6797 0
M  V30 16 C 31.5828 11.0774 67.4878 0
M  V30 17 C 31.9685 9.2933 68.9014 0
M  V30 18 N 31.8068 10.6231 68.7465 0
M  V30 19 H 27.6407 9.0531 62.9195 0
M  V30 20 H 30.7739 6.0983 66.0821 0
M  V30 21 H 26.0566 7.1941 62.8598 0
M  V30 22 H 32.617 7.4243 65.2586 0
M  V30 23 H 31.4285 8.507 64.4577 0
M  V30 24 H 27.2682 2.8657 65.3158 0
M  V30 25 H 31.3513 10.6443 65.3739 0
M  V30 26 H 32.0462 7.3176 68.0138 0
M  V30 27 H 25.3386 4.4875 62.584 0
M  V30 28 H 24.9943 3.3845 63.9594 0
M  V30 29 H 24.5402 5.1194 64.0637 0
M  V30 30 H 31.4418 12.1386 67.3437 0
M  V30 31 H 32.1469 8.9125 69.8962 0
M  V30 END ATOM
M  V30 BEGIN BOND
M  V30 1 2 1 2
M  V30 2 1 1 3
M  V30 3 1 2 4
M  V30 4 1 2 5
M  V30 5 2 3 6
M  V30 6 1 4 7
M  V30 7 2 5 8
M  V30 8 1 5 9
M  V30 9 1 7 10
M  V30 10 1 8 11
M  V30 11 1 9 12
M  V30 12 2 10 13
M  V30 13 1 10 14
M  V30 14 1 12 15
M  V30 15 1 13 16
M  V30 16 2 14 17
M  V30 17 2 16 18
M  V30 18 1 6 9
M  V30 19 2 11 12
M  V30 20 1 17 18
M  V30 21 1 3 19
M  V30 22 1 4 20
M  V30 23 1 6 21
M  V30 24 1 7 22
M  V30 25 1 7 23
M  V30 26 1 11 24
M  V30 27 1 13 25
M  V30 28 1 14 26
M  V30 29 1 15 27
M  V30 30 1 15 28
M  V30 31 1 15 29
M  V30 32 1 16 30
M  V30 33 1 17 31
M  V30 END BOND
M  V30 END CTAB
M  END
>  <Molecule Name>
LXRVAGIYXNQOKP-WYUMXYHSNA-N

>  <hs_clash>
0.0

>  <hs_total>
160.0785864249244

>  <Total Molweight>
239.281

>  <cLogP>
0.4147

>  <H-Acceptors>
5

>  <H-Donors>
1

>  <Polar Surface Area>
55.11

>  <Non-H Atoms>
18

>  <sp3-Atoms>
2

$$$$
BEXUQVHWMLPYKY-VMIOWZCSNA-N
Actelion Java MolfileCreator 2.0

  0  0  0  0  0  0              0 V3000
M  V30 BEGIN CTAB
M  V30 COUNTS 17 18 0 0 0
M  V30 BEGIN ATOM
M  V30 1 O 24.9543 9.6331 61.6849 0
M  V30 2 C 25.8815 10.0509 62.4171 0
M  V30 3 C 26.3661 11.4706 62.4285 0
M  V30 4 C 26.6441 9.1842 63.381 0
M  V30 5 C 26.6933 11.9408 61.0255 0
M  V30 6 C 25.3489 12.3706 63.1007 0
M  V30 7 O 26.4174 7.8208 63.1494 0
M  V30 8 C 26.9945 6.883 63.8941 0
M  V30 9 N 28.0065 7.1503 64.6941 0
M  V30 10 C 26.5952 5.5009 63.7535 0
M  V30 11 C 28.6272 6.2261 65.4879 0
M  V30 12 N 25.6481 4.8555 63.0466 0
M  V30 13 C 27.2766 4.5887 64.6207 0
M  V30 14 N 28.2944 4.9411 65.4392 0
M  V30 15 N 29.629 6.5857 66.3022 0
M  V30 16 C 25.7106 3.6112 63.4263 0
M  V30 17 N 26.6648 3.44 64.3299 0
M  V30 END ATOM
M  V30 BEGIN BOND
M  V30 1 2 1 2
M  V30 2 1 2 3
M  V30 3 1 2 4
M  V30 4 1 3 5
M  V30 5 1 3 6
M  V30 6 1 4 7
M  V30 7 1 7 8
M  V30 8 2 8 9
M  V30 9 1 8 10
M  V30 10 1 9 11
M  V30 11 1 10 12
M  V30 12 2 10 13
M  V30 13 2 11 14
M  V30 14 1 11 15
M  V30 15 2 12 16
M  V30 16 1 13 17
M  V30 17 1 13 14
M  V30 18 1 16 17
M  V30 END BOND
M  V30 END CTAB
M  END
>  <Molecule Name>
BEXUQVHWMLPYKY-VMIOWZCSNA-N

>  <hs_clash>
0.0

>  <hs_total>
158.92810579354853

>  <Total Molweight>
235.246

>  <cLogP>
0.4329

>  <H-Acceptors>
7

>  <H-Donors>
2

>  <Polar Surface Area>
106.78

>  <Non-H Atoms>
17

>  <sp3-Atoms>
5

$$$$
JGCFEPVKTSZCHG-ZHLVXTBQNA-N
Actelion Java MolfileCreator 2.0

  0  0  0  0  0  0              0 V3000
M  V30 BEGIN CTAB
M  V30 COUNTS 32 33 0 0 0
M  V30 BEGIN ATOM
M  V30 1 Cl 31.9872 11.2097 68.9534 0
M  V30 2 C 31.5801 10.0695 67.7315 0
M  V30 3 N 31.3086 8.7785 68.1129 0
M  V30 4 C 31.5408 10.5098 66.3971 0
M  V30 5 C 30.9837 7.8756 67.1219 0
M  V30 6 C 31.2033 9.5609 65.4014 0
M  V30 7 C 30.9196 8.2205 65.7573 0
M  V30 8 C 30.5564 7.2013 64.7028 0
M  V30 9 N 29.3357 6.467 65.1217 0
M  V30 10 C 28.1609 6.7045 64.6364 0
M  V30 11 C 27.189 5.6522 64.5467 0
M  V30 12 C 27.8152 8.0166 64.1903 0
M  V30 13 C 27.4699 4.3673 64.9867 0
M  V30 14 C 25.8939 5.9408 63.9907 0
M  V30 15 C 26.541 8.3054 63.6531 0
M  V30 16 O 28.3208 4.1762 65.8438 0
M  V30 17 N 26.7778 3.2986 64.4858 0
M  V30 18 C 25.5562 7.2565 63.5355 0
M  V30 19 Cl 26.2324 9.9267 63.16 0
M  V30 20 N 24.3889 7.4685 63.0369 0 CHG=1
M  V30 21 O 24.2478 8.1925 61.9461 0
M  V30 22 O 23.3191 6.9288 63.5675 0 CHG=-1
M  V30 23 H 31.76 11.5355 66.1402 0
M  V30 24 H 30.7682 6.8563 67.4058 0
M  V30 25 H 31.1616 9.862 64.3654 0
M  V30 26 H 31.3869 6.4912 64.5787 0
M  V30 27 H 30.3663 7.7138 63.7484 0
M  V30 28 H 29.4264 5.7522 65.8148 0
M  V30 29 H 28.5461 8.8079 64.2656 0
M  V30 30 H 25.162 5.1505 63.9152 0
M  V30 31 H 26.9708 2.3765 64.8208 0
M  V30 32 H 26.0787 3.4398 63.7848 0
M  V30 END ATOM
M  V30 BEGIN BOND
M  V30 1 1 1 2
M  V30 2 2 2 3
M  V30 3 1 2 4
M  V30 4 1 3 5
M  V30 5 2 4 6
M  V30 6 2 5 7
M  V30 7 1 7 8
M  V30 8 1 8 9
M  V30 9 1 9 10
M  V30 10 2 10 11
M  V30 11 1 10 12
M  V30 12 1 11 13
M  V30 13 1 11 14
M  V30 14 2 12 15
M  V30 15 2 13 16
M  V30 16 1 13 17
M  V30 17 2 14 18
M  V30 18 1 15 19
M  V30 19 1 18 20
M  V30 20 2 20 21
M  V30 21 1 20 22
M  V30 22 1 6 7
M  V30 23 1 15 18
M  V30 24 1 4 23
M  V30 25 1 5 24
M  V30 26 1 6 25
M  V30 27 1 8 26
M  V30 28 1 8 27
M  V30 29 1 9 28
M  V30 30 1 12 29
M  V30 31 1 14 30
M  V30 32 1 17 31
M  V30 33 1 17 32
M  V30 END BOND
M  V30 END CTAB
M  END
>  <Molecule Name>
JGCFEPVKTSZCHG-ZHLVXTBQNA-N

>  <hs_clash>
0.0

>  <hs_total>
158.321499982294

>  <Total Molweight>
341.153

>  <cLogP>
1.1989

>  <H-Acceptors>
7

>  <H-Donors>
2

>  <Polar Surface Area>
113.83

>  <Non-H Atoms>
22

>  <sp3-Atoms>
2

$$$$
XWWRLKIBRPJQJX-BDGWVKIONA-N
Actelion Java MolfileCreator 2.0

  0  0  0  0  0  0              0 V3000
M  V30 BEGIN CTAB
M  V30 COUNTS 45 48 0 0 0
M  V30 BEGIN ATOM
M  V30 1 O 25.2199 6.9962 63.4694 0
M  V30 2 C 26.0359 6.1496 64.1187 0
M  V30 3 C 26.0327 8.1808 63.2694 0
M  V30 4 N 27.0931 6.5895 64.7175 0
M  V30 5 C 25.7603 4.7266 64.188 0
M  V30 6 C 25.3693 9.0652 62.184 0
M  V30 7 C 28.0223 5.7161 65.431 0
M  V30 8 N 24.7871 3.7768 63.729 0
M  V30 9 C 26.6046 3.9234 64.848 0
M  V30 10 C 25.2699 10.4903 62.7677 0
M  V30 11 C 26.2311 8.9972 60.8837 0
M  V30 12 N 27.7669 4.4718 65.4635 0
M  V30 13 N 29.1242 6.0112 66.0495 0
M  V30 14 C 25.1379 2.6251 64.122 0
M  V30 15 N 26.2501 2.6722 64.8144 0
M  V30 16 C 24.9776 11.5734 61.7144 0
M  V30 17 C 25.9126 10.1015 59.8539 0
M  V30 18 C 29.8047 7.1299 65.7131 0
M  V30 19 C 25.85 11.5262 60.4515 0
M  V30 20 C 30.4756 7.845 66.7005 0
M  V30 21 C 29.8157 7.5623 64.3925 0
M  V30 22 C 31.1786 9.0012 66.3977 0
M  V30 23 C 30.5003 8.7379 64.0912 0
M  V30 24 C 31.1862 9.4483 65.0731 0
M  V30 25 H 27.0403 7.8865 62.9412 0
M  V30 26 H 26.1038 8.7439 64.2118 0
M  V30 27 H 24.3593 8.6853 61.9701 0
M  V30 28 H 24.4611 10.5044 63.5133 0
M  V30 29 H 26.2246 10.732 63.258 0
M  V30 30 H 27.2902 9.0851 61.1673 0
M  V30 31 H 26.0587 8.021 60.4068 0
M  V30 32 H 29.5916 5.2986 66.5729 0
M  V30 33 H 24.5899 1.7184 63.9128 0
M  V30 34 H 26.7298 1.9011 65.2327 0
M  V30 35 H 23.9274 11.4686 61.4042 0
M  V30 36 H 25.1231 12.555 62.1895 0
M  V30 37 H 24.9379 9.8763 59.3967 0
M  V30 38 H 26.6935 10.0864 59.0795 0
M  V30 39 H 25.4275 12.2098 59.7004 0
M  V30 40 H 26.8691 11.8498 60.7098 0
M  V30 41 H 30.448 7.4932 67.7213 0
M  V30 42 H 29.3074 7.0029 63.6211 0
M  V30 43 H 31.7079 9.5438 67.1673 0
M  V30 44 H 30.4986 9.1058 63.0758 0
M  V30 45 H 31.7253 10.3465 64.8106 0
M  V30 END ATOM
M  V30 BEGIN BOND
M  V30 1 1 1 2
M  V30 2 1 1 3
M  V30 3 2 2 4
M  V30 4 1 2 5
M  V30 5 1 3 6
M  V30 6 1 4 7
M  V30 7 1 5 8
M  V30 8 2 5 9
M  V30 9 1 6 10
M  V30 10 1 6 11
M  V30 11 2 7 12
M  V30 12 1 7 13
M  V30 13 2 8 14
M  V30 14 1 9 15
M  V30 15 1 10 16
M  V30 16 1 11 17
M  V30 17 1 13 18
M  V30 18 1 16 19
M  V30 19 2 18 20
M  V30 20 1 18 21
M  V30 21 1 20 22
M  V30 22 2 21 23
M  V30 23 2 22 24
M  V30 24 1 9 12
M  V30 25 1 14 15
M  V30 26 1 17 19
M  V30 27 1 23 24
M  V30 28 1 3 25
M  V30 29 1 3 26
M  V30 30 1 6 27
M  V30 31 1 10 28
M  V30 32 1 10 29
M  V30 33 1 11 30
M  V30 34 1 11 31
M  V30 35 1 13 32
M  V30 36 1 14 33
M  V30 37 1 15 34
M  V30 38 1 16 35
M  V30 39 1 16 36
M  V30 40 1 17 37
M  V30 41 1 17 38
M  V30 42 1 19 39
M  V30 43 1 19 40
M  V30 44 1 20 41
M  V30 45 1 21 42
M  V30 46 1 22 43
M  V30 47 1 23 44
M  V30 48 1 24 45
M  V30 END BOND
M  V30 END CTAB
M  END
>  <Molecule Name>
XWWRLKIBRPJQJX-BDGWVKIONA-N

>  <hs_clash>
0.0

>  <hs_total>
158.2174602355578

>  <Total Molweight>
323.399

>  <cLogP>
3.9106

>  <H-Acceptors>
6

>  <H-Donors>
2

>  <Polar Surface Area>
75.72

>  <Non-H Atoms>
24

>  <sp3-Atoms>
8

$$$$
CVYWYUAQFJMLEO-UHFFFAOYNA-N
Actelion Java MolfileCreator 2.0

  0  0  0  0  0  0              0 V3000
M  V30 BEGIN CTAB
M  V30 COUNTS 38 41 0 0 0
M  V30 BEGIN ATOM
M  V30 1 Cl 26.7984 10.4278 63.8943 0
M  V30 2 C 26.5247 9.9773 62.3044 0
M  V30 3 C 26.0988 10.9258 61.384 0
M  V30 4 C 26.7228 8.6558 61.88 0
M  V30 5 Cl 25.8286 12.5272 61.8651 0
M  V30 6 C 25.8647 10.5786 60.0533 0
M  V30 7 C 27.1317 7.5639 62.7971 0
M  V30 8 C 26.4786 8.3129 60.5431 0
M  V30 9 C 26.0372 9.2662 59.6417 0
M  V30 10 N 26.3266 6.5017 62.8553 0
M  V30 11 C 28.4136 7.6465 63.4508 0
M  V30 12 C 26.7541 5.4658 63.6349 0
M  V30 13 C 28.8449 6.5702 64.2531 0
M  V30 14 N 28.0045 5.4899 64.368 0
M  V30 15 C 26.181 4.1982 63.9512 0
M  V30 16 N 30.0571 6.5164 64.8994 0
M  V30 17 N 28.1957 4.3538 65.092 0
M  V30 18 C 27.1315 3.5547 64.8114 0
M  V30 19 C 31.0845 7.4594 64.5063 0
M  V30 20 C 31.2109 8.5868 65.4698 0
M  V30 21 C 31.1264 9.9071 65.0251 0
M  V30 22 C 31.3894 8.336 66.8296 0
M  V30 23 C 31.2333 10.9407 65.9786 0
M  V30 24 C 31.495 9.4311 67.7066 0
M  V30 25 N 31.3921 10.7194 67.2965 0
M  V30 26 H 25.5497 11.3311 59.3453 0
M  V30 27 H 26.6363 7.2966 60.2137 0
M  V30 28 H 25.827 8.9881 58.6196 0
M  V30 29 H 29.0355 8.5208 63.3275 0
M  V30 30 H 25.2326 3.8063 63.6145 0
M  V30 31 H 30.2252 5.8447 65.6208 0
M  V30 32 H 27.0152 2.551 65.1924 0
M  V30 33 H 32.0476 6.9314 64.4509 0
M  V30 34 H 30.8315 7.8666 63.5163 0
M  V30 35 H 30.9827 10.1316 63.9785 0
M  V30 36 H 31.4454 7.3239 67.2016 0
M  V30 37 H 31.185 11.963 65.6335 0
M  V30 38 H 31.6657 9.2367 68.7553 0
M  V30 END ATOM
M  V30 BEGIN BOND
M  V30 1 1 1 2
M  V30 2 2 2 3
M  V30 3 1 2 4
M  V30 4 1 3 5
M  V30 5 1 3 6
M  V30 6 1 4 7
M  V30 7 2 4 8
M  V30 8 2 6 9
M  V30 9 2 7 10
M  V30 10 1 7 11
M  V30 11 1 10 12
M  V30 12 2 11 13
M  V30 13 1 12 14
M  V30 14 2 12 15
M  V30 15 1 13 16
M  V30 16 1 14 17
M  V30 17 1 15 18
M  V30 18 1 16 19
M  V30 19 1 19 20
M  V30 20 2 20 21
M  V30 21 1 20 22
M  V30 22 1 21 23
M  V30 23 2 22 24
M  V30 24 2 23 25
M  V30 25 1 8 9
M  V30 26 1 13 14
M  V30 27 2 17 18
M  V30 28 1 24 25
M  V30 29 1 6 26
M  V30 30 1 8 27
M  V30 31 1 9 28
M  V30 32 1 11 29
M  V30 33 1 15 30
M  V30 34 1 16 31
M  V30 35 1 18 32
M  V30 36 1 19 33
M  V30 37 1 19 34
M  V30 38 1 21 35
M  V30 39 1 22 36
M  V30 40 1 23 37
M  V30 41 1 24 38
M  V30 END BOND
M  V30 END CTAB
M  END
>  <Molecule Name>
CVYWYUAQFJMLEO-UHFFFAOYNA-N

>  <hs_clash>
0.0

>  <hs_total>
157.35450923016498

>  <Total Molweight>
370.242

>  <cLogP>
2.9401

>  <H-Acceptors>
5

>  <H-Donors>
1

>  <Polar Surface Area>
55.11

>  <Non-H Atoms>
25

>  <sp3-Atoms>
1

$$$$
FZWJCGAXJODLPL-YHSKDTNENA-N
Actelion Java MolfileCreator 2.0

  0  0  0  0  0  0              0 V3000
M  V30 BEGIN CTAB
M  V30 COUNTS 31 32 0 0 0
M  V30 BEGIN ATOM
M  V30 1 Cl 31.9898 10.881 68.9401 0
M  V30 2 C 31.5763 9.7926 67.6763 0
M  V30 3 N 31.059 8.5991 68.0411 0
M  V30 4 N 31.7965 10.1985 66.399 0
M  V30 5 C 30.7429 7.7474 67.0238 0
M  V30 6 C 31.4621 9.3078 65.4148 0
M  V30 7 C 30.9258 8.049 65.6648 0
M  V30 8 C 30.5666 7.0882 64.5631 0
M  V30 9 N 29.3719 6.3012 64.9639 0
M  V30 10 C 28.1686 6.5793 64.5716 0
M  V30 11 C 27.1548 5.5652 64.5686 0
M  V30 12 C 27.831 7.9039 64.1472 0
M  V30 13 C 27.4207 4.285 64.997 0
M  V30 14 C 25.8298 5.8939 64.1172 0
M  V30 15 C 26.529 8.2297 63.7168 0
M  V30 16 O 28.2614 4.0851 65.866 0
M  V30 17 N 26.7117 3.2326 64.5031 0
M  V30 18 C 25.4959 7.2143 63.6838 0
M  V30 19 Cl 26.2464 9.8549 63.2557 0
M  V30 20 N 24.2831 7.4554 63.2845 0 CHG=1
M  V30 21 O 24.0136 8.4016 62.4061 0
M  V30 22 O 23.2876 6.7292 63.7154 0 CHG=-1
M  V30 23 H 30.3272 6.7837 67.2789 0
M  V30 24 H 31.6236 9.5987 64.3874 0
M  V30 25 H 31.4108 6.4069 64.3812 0
M  V30 26 H 30.344 7.6505 63.6443 0
M  V30 27 H 29.5033 5.5155 65.5683 0
M  V30 28 H 28.591 8.6712 64.1571 0
M  V30 29 H 25.0699 5.1264 64.1057 0
M  V30 30 H 26.8799 2.3098 64.8496 0
M  V30 31 H 26.0224 3.3825 63.7941 0
M  V30 END ATOM
M  V30 BEGIN BOND
M  V30 1 1 1 2
M  V30 2 2 2 3
M  V30 3 1 2 4
M  V30 4 1 3 5
M  V30 5 2 4 6
M  V30 6 2 5 7
M  V30 7 1 7 8
M  V30 8 1 8 9
M  V30 9 1 9 10
M  V30 10 2 10 11
M  V30 11 1 10 12
M  V30 12 1 11 13
M  V30 13 1 11 14
M  V30 14 2 12 15
M  V30 15 2 13 16
M  V30 16 1 13 17
M  V30 17 2 14 18
M  V30 18 1 15 19
M  V30 19 1 18 20
M  V30 20 2 20 21
M  V30 21 1 20 22
M  V30 22 1 6 7
M  V30 23 1 15 18
M  V30 24 1 5 23
M  V30 25 1 6 24
M  V30 26 1 8 25
M  V30 27 1 8 26
M  V30 28 1 9 27
M  V30 29 1 12 28
M  V30 30 1 14 29
M  V30 31 1 17 30
M  V30 32 1 17 31
M  V30 END BOND
M  V30 END CTAB
M  END
>  <Molecule Name>
FZWJCGAXJODLPL-YHSKDTNENA-N

>  <hs_clash>
0.0

>  <hs_total>
157.29851739597848

>  <Total Molweight>
342.141

>  <cLogP>
0.7813

>  <H-Acceptors>
8

>  <H-Donors>
2

>  <Polar Surface Area>
126.72

>  <Non-H Atoms>
22

>  <sp3-Atoms>
2

$$$$
LHAHDJVJZXCZNC-YGPBECBDNA-N
Actelion Java MolfileCreator 2.0

  0  0  0  0  0  0              0 V3000
M  V30 BEGIN CTAB
M  V30 COUNTS 31 32 0 0 0
M  V30 BEGIN ATOM
M  V30 1 Cl 26.1675 9.8999 63.0877 0
M  V30 2 C 26.4759 8.2894 63.5884 0
M  V30 3 C 25.4578 7.2612 63.5772 0
M  V30 4 C 27.7861 7.9969 64.031 0
M  V30 5 N 24.238 7.4745 63.1706 0 CHG=1
M  V30 6 C 25.8137 5.9622 64.0457 0
M  V30 7 C 28.1441 6.6918 64.4896 0
M  V30 8 O 23.2577 6.6544 63.4983 0
M  V30 9 O 23.9427 8.4797 62.3862 0 CHG=-1
M  V30 10 C 27.1421 5.6661 64.5082 0
M  V30 11 N 29.3629 6.4366 64.8939 0
M  V30 12 C 27.4137 4.3982 64.9674 0
M  V30 13 C 30.5503 7.2116 64.4569 0
M  V30 14 O 28.2271 4.2236 65.8636 0
M  V30 15 N 26.7307 3.3359 64.4795 0
M  V30 16 C 30.8975 8.2432 65.5007 0
M  V30 17 C 31.4364 9.4881 65.1735 0
M  V30 18 C 30.7026 8.0335 66.8718 0
M  V30 19 N 31.7565 10.4468 66.0973 0
M  V30 20 N 31.0014 8.9514 67.8331 0
M  V30 21 C 31.5214 10.1295 67.3978 0
M  V30 22 H 28.5329 8.777 64.0227 0
M  V30 23 H 25.0671 5.1822 64.0531 0
M  V30 24 H 29.5007 5.6789 65.5315 0
M  V30 25 H 31.4017 6.5291 64.3204 0
M  V30 26 H 30.3276 7.7157 63.505 0
M  V30 27 H 26.8943 2.4227 64.852 0
M  V30 28 H 26.0624 3.4651 63.747 0
M  V30 29 H 31.6109 9.7082 64.1309 0
M  V30 30 H 30.2904 7.086 67.1861 0
M  V30 31 H 31.7671 10.8711 68.1435 0
M  V30 END ATOM
M  V30 BEGIN BOND
M  V30 1 1 1 2
M  V30 2 2 2 3
M  V30 3 1 2 4
M  V30 4 1 3 5
M  V30 5 1 3 6
M  V30 6 2 4 7
M  V30 7 2 5 8
M  V30 8 1 5 9
M  V30 9 2 6 10
M  V30 10 1 7 11
M  V30 11 1 10 12
M  V30 12 1 11 13
M  V30 13 2 12 14
M  V30 14 1 12 15
M  V30 15 1 13 16
M  V30 16 2 16 17
M  V30 17 1 16 18
M  V30 18 1 17 19
M  V30 19 2 18 20
M  V30 20 2 19 21
M  V30 21 1 7 10
M  V30 22 1 20 21
M  V30 23 1 4 22
M  V30 24 1 6 23
M  V30 25 1 11 24
M  V30 26 1 13 25
M  V30 27 1 13 26
M  V30 28 1 15 27
M  V30 29 1 15 28
M  V30 30 1 17 29
M  V30 31 1 18 30
M  V30 32 1 21 31
M  V30 END BOND
M  V30 END CTAB
M  END
>  <Molecule Name>
LHAHDJVJZXCZNC-YGPBECBDNA-N

>  <hs_clash>
0.0

>  <hs_total>
155.45897115591748

>  <Total Molweight>
307.696

>  <cLogP>
-0.0668

>  <H-Acceptors>
8

>  <H-Donors>
2

>  <Polar Surface Area>
126.72

>  <Non-H Atoms>
21

>  <sp3-Atoms>
2

$$$$
NWVQKPQYUAHOFK-LILDFLRNNA-N
Actelion Java MolfileCreator 2.0

  0  0  0  0  0  0              0 V3000
M  V30 BEGIN CTAB
M  V30 COUNTS 37 39 0 0 0
M  V30 BEGIN ATOM
M  V30 1 S 28.2193 6.8464 64.2867 0
M  V30 2 C 28.9618 5.8013 65.4112 0
M  V30 3 C 27.2676 5.5454 63.7198 0
M  V30 4 N 28.5198 4.5436 65.3818 0
M  V30 5 N 29.9444 6.1933 66.2831 0
M  V30 6 C 27.5657 4.3739 64.4434 0
M  V30 7 C 26.3754 5.7091 62.6911 0
M  V30 8 C 30.2077 7.6182 66.4811 0
M  V30 9 N 27.0022 3.1684 64.2606 0
M  V30 10 O 25.6374 4.6659 62.2293 0
M  V30 11 C 26.1924 7.0381 62.0051 0
M  V30 12 C 31.4657 7.9351 66.068 0
M  V30 13 C 25.994 8.2582 62.7521 0
M  V30 14 C 26.2408 7.0956 60.58 0
M  V30 15 C 31.7594 8.2577 64.6597 0
M  V30 16 C 25.8538 9.5107 62.0772 0
M  V30 17 C 26.0971 8.3408 59.8957 0
M  V30 18 C 25.9084 9.5471 60.6236 0
M  V30 19 C 25.6642 10.7313 62.8128 0
M  V30 20 C 25.775 10.8023 59.9428 0
M  V30 21 C 25.5334 11.9698 62.1135 0
M  V30 22 C 25.5892 12.0031 60.689 0
M  V30 23 H 30.4775 5.5092 66.7809 0
M  V30 24 H 30.1065 7.8595 67.5498 0
M  V30 25 H 29.4786 8.2046 65.9025 0
M  V30 26 H 27.4035 2.5122 64.8994 0
M  V30 27 H 27.1654 2.8628 63.3228 0
M  V30 28 H 32.2687 7.9504 66.79 0
M  V30 29 H 25.9511 8.2244 63.8308 0
M  V30 30 H 26.3873 6.1882 60.0136 0
M  V30 31 H 30.9663 8.2468 63.9266 0
M  V30 32 H 32.7673 8.5053 64.3614 0
M  V30 33 H 26.1322 8.3662 58.8166 0
M  V30 34 H 25.6208 10.7121 63.8921 0
M  V30 35 H 25.8151 10.838 58.8643 0
M  V30 36 H 25.3912 12.8866 62.6668 0
M  V30 37 H 25.4901 12.9457 60.1712 0
M  V30 END ATOM
M  V30 BEGIN BOND
M  V30 1 1 1 2
M  V30 2 1 1 3
M  V30 3 2 2 4
M  V30 4 1 2 5
M  V30 5 2 3 6
M  V30 6 1 3 7
M  V30 7 1 5 8
M  V30 8 1 6 9
M  V30 9 2 7 10
M  V30 10 1 7 11
M  V30 11 1 8 12
M  V30 12 2 11 13
M  V30 13 1 11 14
M  V30 14 2 12 15
M  V30 15 1 13 16
M  V30 16 2 14 17
M  V30 17 1 16 18
M  V30 18 2 16 19
M  V30 19 2 18 20
M  V30 20 1 19 21
M  V30 21 1 20 22
M  V30 22 1 4 6
M  V30 23 1 17 18
M  V30 24 2 21 22
M  V30 25 1 5 23
M  V30 26 1 8 24
M  V30 27 1 8 25
M  V30 28 1 9 26
M  V30 29 1 9 27
M  V30 30 1 12 28
M  V30 31 1 13 29
M  V30 32 1 14 30
M  V30 33 1 15 31
M  V30 34 1 15 32
M  V30 35 1 17 33
M  V30 36 1 19 34
M  V30 37 1 20 35
M  V30 38 1 21 36
M  V30 39 1 22 37
M  V30 END BOND
M  V30 END CTAB
M  END
>  <Molecule Name>
NWVQKPQYUAHOFK-LILDFLRNNA-N

>  <hs_clash>
0.0

>  <hs_total>
154.08907830550208

>  <Total Molweight>
309.392

>  <cLogP>
3.6878

>  <H-Acceptors>
4

>  <H-Donors>
2

>  <Polar Surface Area>
96.25

>  <Non-H Atoms>
22

>  <sp3-Atoms>
1

$$$$
MDIWBYRNTPTYQI-UZAATGMENA-O
Actelion Java MolfileCreator 2.0

  0  0  0  0  0  0              0 V3000
M  V30 BEGIN CTAB
M  V30 COUNTS 67 70 0 0 0
M  V30 BEGIN ATOM
M  V30 1 S 33.7181 11.0033 65.492 0
M  V30 2 O 34.3112 11.2072 66.8244 0
M  V30 3 O 34.6383 10.5941 64.4403 0
M  V30 4 N 32.9636 12.3902 65.1137 0
M  V30 5 C 32.5288 9.6776 65.6072 0
M  V30 6 C 32.4454 13.2205 66.2057 0
M  V30 7 C 32.7833 12.8268 63.7243 0
M  V30 8 C 32.2543 9.0647 66.8159 0
M  V30 9 C 31.8693 9.2909 64.4358 0
M  V30 10 C 31.31 8.0416 66.8717 0
M  V30 11 C 30.9249 8.2838 64.4628 0
M  V30 12 C 30.6455 7.6547 65.6894 0
M  V30 13 N 29.7379 6.665 65.7202 0
M  V30 14 C 28.5767 6.7022 65.0084 0
M  V30 15 N 27.8692 5.581 64.8619 0
M  V30 16 C 28.075 7.8663 64.4173 0
M  V30 17 N 28.1213 4.3521 65.3084 0
M  V30 18 C 26.7567 5.5636 64.1598 0
M  V30 19 C 26.895 7.7963 63.6901 0
M  V30 20 C 27.1305 3.535 64.8749 0
M  V30 21 N 26.243 6.6405 63.5915 0
M  V30 22 C 26.2406 4.2958 64.1337 0
M  V30 23 N 26.3111 8.8755 63.1437 0
M  V30 24 C 24.9758 3.9015 63.4838 0
M  V30 25 C 26.1208 9.2127 61.7571 0 CFG=1
M  V30 26 C 24.9709 3.539 62.0238 0
M  V30 27 C 23.7803 4.6991 63.862 0
M  V30 28 C 24.8121 9.9896 61.7104 0
M  V30 29 C 25.9397 7.8892 61.0445 0
M  V30 30 C 24.4481 10.2785 60.2546 0
M  V30 31 C 25.605 8.1503 59.5867 0
M  V30 32 C 24.3059 8.9594 59.4851 0 CFG=1
M  V30 33 N 24.0191 9.2479 58.0644 0 CHG=1
M  V30 34 H 31.9655 14.1182 65.7887 0
M  V30 35 H 31.7071 12.6458 66.7844 0
M  V30 36 H 33.2743 13.52 66.8636 0
M  V30 37 H 33.2315 12.0862 63.0458 0
M  V30 38 H 31.7091 12.9209 63.506 0
M  V30 39 H 33.2733 13.8008 63.5794 0
M  V30 40 H 32.7692 9.3773 67.7122 0
M  V30 41 H 32.1008 9.7837 63.5032 0
M  V30 42 H 31.0893 7.5514 67.8086 0
M  V30 43 H 30.411 7.9858 63.5609 0
M  V30 44 H 30.0347 5.7777 66.0726 0
M  V30 45 H 28.5976 8.8052 64.5251 0
M  V30 46 H 27.0489 2.4765 65.0725 0
M  V30 47 H 25.9558 9.5441 63.7972 0
M  V30 48 H 24.7641 2.9325 63.9589 0
M  V30 49 H 26.9546 9.7939 61.3368 0
M  V30 50 H 23.949 3.2741 61.7147 0
M  V30 51 H 25.3222 4.3969 61.432 0
M  V30 52 H 25.6383 2.6807 61.8576 0
M  V30 53 H 22.9 4.321 63.3215 0
M  V30 54 H 23.6097 4.6132 64.9454 0
M  V30 55 H 23.9456 5.7548 63.5999 0
M  V30 56 H 24.928 10.9382 62.2556 0
M  V30 57 H 24.0141 9.3938 62.1776 0
M  V30 58 H 25.12 7.3266 61.5155 0
M  V30 59 H 26.8697 7.3058 61.1102 0
M  V30 60 H 25.24 10.8872 59.7939 0
M  V30 61 H 23.4954 10.8275 60.2181 0
M  V30 62 H 25.4784 7.1908 59.0643 0
M  V30 63 H 26.4245 8.7168 59.1204 0
M  V30 64 H 23.4825 8.375 59.9216 0
M  V30 65 H 23.5238 10.1139 57.9929 0
M  V30 66 H 24.8784 9.3127 57.5575 0
M  V30 67 H 23.4605 8.5122 57.6813 0
M  V30 END ATOM
M  V30 BEGIN BOND
M  V30 1 2 1 2
M  V30 2 2 1 3
M  V30 3 1 1 4
M  V30 4 1 1 5
M  V30 5 1 4 6
M  V30 6 1 4 7
M  V30 7 2 5 8
M  V30 8 1 5 9
M  V30 9 1 8 10
M  V30 10 2 9 11
M  V30 11 2 10 12
M  V30 12 1 12 13
M  V30 13 1 13 14
M  V30 14 1 14 15
M  V30 15 2 14 16
M  V30 16 1 15 17
M  V30 17 1 15 18
M  V30 18 1 16 19
M  V30 19 2 17 20
M  V30 20 1 18 21
M  V30 21 2 18 22
M  V30 22 1 19 23
M  V30 23 1 22 24
M  V30 24 1 23 25
M  V30 25 1 24 26
M  V30 26 1 24 27
M  V30 27 1 25 28
M  V30 28 1 25 29
M  V30 29 1 28 30
M  V30 30 1 29 31
M  V30 31 1 30 32
M  V30 32 1 32 33
M  V30 33 1 11 12
M  V30 34 2 19 21
M  V30 35 1 20 22
M  V30 36 1 31 32
M  V30 37 1 6 34
M  V30 38 1 6 35
M  V30 39 1 6 36
M  V30 40 1 7 37
M  V30 41 1 7 38
M  V30 42 1 7 39
M  V30 43 1 8 40
M  V30 44 1 9 41
M  V30 45 1 10 42
M  V30 46 1 11 43
M  V30 47 1 13 44
M  V30 48 1 16 45
M  V30 49 1 20 46
M  V30 50 1 23 47
M  V30 51 1 24 48
M  V30 52 1 25 49
M  V30 53 1 26 50
M  V30 54 1 26 51
M  V30 55 1 26 52
M  V30 56 1 27 53
M  V30 57 1 27 54
M  V30 58 1 27 55
M  V30 59 1 28 56
M  V30 60 1 28 57
M  V30 61 1 29 58
M  V30 62 1 29 59
M  V30 63 1 30 60
M  V30 64 1 30 61
M  V30 65 1 31 62
M  V30 66 1 31 63
M  V30 67 1 32 64
M  V30 68 1 33 65
M  V30 69 1 33 66
M  V30 70 1 33 67
M  V30 END BOND
M  V30 BEGIN COLLECTION
M  V30 MDLV30/STEABS ATOMS=(2 25 32)
M  V30 END COLLECTION
M  V30 END CTAB
M  END
>  <Molecule Name>
MDIWBYRNTPTYQI-UZAATGMENA-O

>  <hs_clash>
14.0

>  <hs_total>
153.99401928373027

>  <Total Molweight>
472.636

>  <cLogP>
-1.0169

>  <H-Acceptors>
9

>  <H-Donors>
3

>  <Polar Surface Area>
127.65

>  <Non-H Atoms>
33

>  <sp3-Atoms>
13

$$$$
JRNJNYBQQYBCLE-VDDAFCAXNA-N
Actelion Java MolfileCreator 2.0

  0  0  0  0  0  0              0 V3000
M  V30 BEGIN CTAB
M  V30 COUNTS 51 53 0 0 0
M  V30 BEGIN ATOM
M  V30 1 S 33.3328 10.633 64.7732 0
M  V30 2 O 34.1561 10.2756 63.6398 0
M  V30 3 O 34.1713 10.8992 65.9106 0
M  V30 4 N 32.3344 9.3069 65.1265 0
M  V30 5 C 32.38 12.1342 64.3488 0
M  V30 6 C 31.5462 9.5548 66.3661 0
M  V30 7 C 31.4235 9.0007 63.9831 0
M  V30 8 C 30.8006 8.265 66.7696 0
M  V30 9 C 30.6605 7.6912 64.2758 0
M  V30 10 C 29.8682 7.7885 65.6261 0
M  V30 11 N 29.3053 6.4875 66.0116 0
M  V30 12 C 28.2368 6.0877 65.2641 0
M  V30 13 N 27.9642 4.7504 65.273 0
M  V30 14 N 27.495 6.9798 64.5526 0
M  V30 15 C 26.9108 4.2594 64.5369 0
M  V30 16 C 26.4912 6.5697 63.8402 0
M  V30 17 N 26.6889 2.9328 64.5795 0
M  V30 18 C 26.1038 5.1734 63.759 0
M  V30 19 C 24.9761 4.7788 62.9284 0
M  V30 20 O 24.6015 3.594 62.8897 0
M  V30 21 C 24.277 5.7429 62.1086 0
M  V30 22 C 22.91 6.0756 62.4181 0
M  V30 23 C 24.9337 6.3971 60.9721 0
M  V30 24 F 22.2823 5.4981 63.4386 0
M  V30 25 C 22.2011 7.0338 61.6285 0
M  V30 26 O 26.2719 6.0548 60.6762 0
M  V30 27 C 24.1845 7.3638 60.1953 0
M  V30 28 F 20.9488 7.3331 61.9194 0
M  V30 29 C 22.8353 7.6765 60.5252 0
M  V30 30 C 26.9685 7.0775 59.9215 0
M  V30 31 H 33.0733 12.9597 64.1299 0
M  V30 32 H 31.7567 11.9349 63.4644 0
M  V30 33 H 31.7357 12.4117 65.1963 0
M  V30 34 H 32.2249 9.8552 67.1783 0
M  V30 35 H 30.8167 10.3578 66.1826 0
M  V30 36 H 30.7048 9.8239 63.855 0
M  V30 37 H 32.015 8.884 63.0632 0
M  V30 38 H 31.5359 7.4766 66.9879 0
M  V30 39 H 30.1973 8.4627 67.6682 0
M  V30 40 H 31.3811 6.8627 64.3413 0
M  V30 41 H 29.952 7.4974 63.4569 0
M  V30 42 H 29.058 8.5226 65.5029 0
M  V30 43 H 29.935 5.7843 66.3416 0
M  V30 44 H 25.9195 7.2982 63.2841 0
M  V30 45 H 26.9819 2.5737 65.4658 0
M  V30 46 H 25.713 2.7533 64.4542 0
M  V30 47 H 24.6551 7.8533 59.3556 0
M  V30 48 H 22.2912 8.4021 59.9384 0
M  V30 49 H 28.0001 6.7502 59.7251 0
M  V30 50 H 26.4493 7.2464 58.9666 0
M  V30 51 H 26.9849 8.0133 60.5002 0
M  V30 END ATOM
M  V30 BEGIN BOND
M  V30 1 2 1 2
M  V30 2 2 1 3
M  V30 3 1 1 4
M  V30 4 1 1 5
M  V30 5 1 4 6
M  V30 6 1 4 7
M  V30 7 1 6 8
M  V30 8 1 7 9
M  V30 9 1 8 10
M  V30 10 1 10 11
M  V30 11 1 11 12
M  V30 12 2 12 13
M  V30 13 1 12 14
M  V30 14 1 13 15
M  V30 15 2 14 16
M  V30 16 1 15 17
M  V30 17 2 15 18
M  V30 18 1 18 19
M  V30 19 2 19 20
M  V30 20 1 19 21
M  V30 21 2 21 22
M  V30 22 1 21 23
M  V30 23 1 22 24
M  V30 24 1 22 25
M  V30 25 1 23 26
M  V30 26 2 23 27
M  V30 27 1 25 28
M  V30 28 2 25 29
M  V30 29 1 26 30
M  V30 30 1 9 10
M  V30 31 1 16 18
M  V30 32 1 27 29
M  V30 33 1 5 31
M  V30 34 1 5 32
M  V30 35 1 5 33
M  V30 36 1 6 34
M  V30 37 1 6 35
M  V30 38 1 7 36
M  V30 39 1 7 37
M  V30 40 1 8 38
M  V30 41 1 8 39
M  V30 42 1 9 40
M  V30 43 1 9 41
M  V30 44 1 10 42
M  V30 45 1 11 43
M  V30 46 1 16 44
M  V30 47 1 17 45
M  V30 48 1 17 46
M  V30 49 1 27 47
M  V30 50 1 29 48
M  V30 51 1 30 49
M  V30 52 1 30 50
M  V30 53 1 30 51
M  V30 END BOND
M  V30 END CTAB
M  END
>  <Molecule Name>
JRNJNYBQQYBCLE-VDDAFCAXNA-N

>  <hs_clash>
3.0

>  <hs_total>
152.81647601336766

>  <Total Molweight>
441.458

>  <cLogP>
1.1683

>  <H-Acceptors>
9

>  <H-Donors>
2

>  <Polar Surface Area>
135.89

>  <Non-H Atoms>
30

>  <sp3-Atoms>
9

$$$$
PAPYICJQRHSQGK-QMLCPYSLNA-N
Actelion Java MolfileCreator 2.0

  0  0  0  0  0  0              0 V3000
M  V30 BEGIN CTAB
M  V30 COUNTS 19 20 0 0 0
M  V30 BEGIN ATOM
M  V30 1 Cl 26.6345 6.8429 60.2724 0
M  V30 2 C 26.5713 8.0502 61.286 0
M  V30 3 S 26.1823 9.545 60.6312 0
M  V30 4 C 26.8206 7.937 62.6174 0
M  V30 5 C 26.3125 10.1822 62.1703 0
M  V30 6 C 27.1524 6.7747 63.4462 0
M  V30 7 C 26.6636 9.2336 63.2138 0
M  V30 8 Cl 26.0818 11.7681 62.5909 0
M  V30 9 N 26.5608 5.5437 63.3177 0
M  V30 10 C 28.1639 6.8913 64.4635 0
M  V30 11 C 26.8718 4.5562 64.1081 0
M  V30 12 C 28.4703 5.773 65.2798 0
M  V30 13 N 27.7848 4.5871 65.0078 0
M  V30 14 N 26.3013 3.3636 63.89 0
M  V30 15 H 26.7859 9.4651 64.2618 0
M  V30 16 H 28.6865 7.8259 64.6048 0
M  V30 17 H 29.1993 5.8357 66.0741 0
M  V30 18 H 26.7101 2.6821 64.497 0
M  V30 19 H 25.6079 3.4512 63.1748 0
M  V30 END ATOM
M  V30 BEGIN BOND
M  V30 1 1 1 2
M  V30 2 1 2 3
M  V30 3 2 2 4
M  V30 4 1 3 5
M  V30 5 1 4 6
M  V30 6 1 4 7
M  V30 7 1 5 8
M  V30 8 2 6 9
M  V30 9 1 6 10
M  V30 10 1 9 11
M  V30 11 2 10 12
M  V30 12 2 11 13
M  V30 13 1 11 14
M  V30 14 2 5 7
M  V30 15 1 12 13
M  V30 16 1 7 15
M  V30 17 1 10 16
M  V30 18 1 12 17
M  V30 19 1 14 18
M  V30 20 1 14 19
M  V30 END BOND
M  V30 END CTAB
M  END
>  <Molecule Name>
PAPYICJQRHSQGK-QMLCPYSLNA-N

>  <hs_clash>
0.0

>  <hs_total>
152.33594497973922

>  <Total Molweight>
246.121

>  <cLogP>
2.9446

>  <H-Acceptors>
3

>  <H-Donors>
1

>  <Polar Surface Area>
80.04

>  <Non-H Atoms>
14

>  <sp3-Atoms>
0

$$$$
WJRRGYBTGDJBFX-MRHCIZOGNA-O
Actelion Java MolfileCreator 2.0

  0  0  0  0  0  0              0 V3000
M  V30 BEGIN CTAB
M  V30 COUNTS 48 50 0 0 0
M  V30 BEGIN ATOM
M  V30 1 S 31.8518 10.7198 64.4071 0
M  V30 2 O 32.9948 10.3148 63.6168 0
M  V30 3 O 30.891 11.6554 63.8971 0
M  V30 4 C 30.9539 9.2465 64.7524 0
M  V30 5 C 32.5255 11.244 65.9244 0
M  V30 6 C 31.197 8.5793 65.925 0
M  V30 7 C 30.0288 8.7798 63.8508 0
M  V30 8 C 30.5634 7.3815 66.1619 0
M  V30 9 C 29.3386 7.6189 64.1199 0
M  V30 10 C 29.5883 6.9058 65.2993 0
M  V30 11 N 28.988 5.6752 65.61 0
M  V30 12 C 27.9775 5.0233 64.999 0
M  V30 13 N 27.038 5.5862 64.2034 0
M  V30 14 N 28.0383 3.7113 65.2948 0
M  V30 15 C 26.0896 4.7735 63.6966 0
M  V30 16 C 27.1298 2.9248 64.7123 0
M  V30 17 C 25.0701 5.3475 62.8347 0
M  V30 18 C 26.0744 3.4035 63.9606 0
M  V30 19 N 25.1533 6.549 62.0841 0
M  V30 20 C 23.8065 4.8734 62.6341 0
M  V30 21 C 23.934 6.6516 61.4334 0
M  V30 22 C 26.3373 7.3508 61.9029 0
M  V30 23 N 23.0996 5.6899 61.789 0 CHG=1
M  V30 24 C 23.5831 7.7658 60.5015 0
M  V30 25 C 26.7511 7.2746 60.413 0
M  V30 26 C 26.1041 8.7097 62.4813 0
M  V30 27 H 33.1018 12.1681 65.7706 0
M  V30 28 H 31.712 11.4343 66.6404 0
M  V30 29 H 33.1878 10.4606 66.3215 0
M  V30 30 H 31.8787 8.99 66.6553 0
M  V30 31 H 29.8434 9.3211 62.935 0
M  V30 32 H 30.8298 6.8026 67.0339 0
M  V30 33 H 28.6014 7.257 63.4185 0
M  V30 34 H 29.6471 5.037 66.0079 0
M  V30 35 H 27.2253 1.8564 64.8358 0
M  V30 36 H 25.2873 2.7581 63.6 0
M  V30 37 H 23.4141 3.9727 63.0825 0
M  V30 38 H 27.1509 6.8867 62.4797 0
M  V30 39 H 22.148 5.5804 61.5008 0
M  V30 40 H 22.54 7.6531 60.1705 0
M  V30 41 H 23.7005 8.7288 61.0207 0
M  V30 42 H 24.2503 7.7367 59.6277 0
M  V30 43 H 27.6545 7.8808 60.2515 0
M  V30 44 H 26.9579 6.2287 60.1431 0
M  V30 45 H 25.9338 7.6605 59.7855 0
M  V30 46 H 27.0049 9.3263 62.3455 0
M  V30 47 H 25.2542 9.1854 61.9693 0
M  V30 48 H 25.8807 8.6184 63.5546 0
M  V30 END ATOM
M  V30 BEGIN BOND
M  V30 1 2 1 2
M  V30 2 2 1 3
M  V30 3 1 1 4
M  V30 4 1 1 5
M  V30 5 2 4 6
M  V30 6 1 4 7
M  V30 7 1 6 8
M  V30 8 2 7 9
M  V30 9 2 8 10
M  V30 10 1 10 11
M  V30 11 1 11 12
M  V30 12 2 12 13
M  V30 13 1 12 14
M  V30 14 1 13 15
M  V30 15 2 14 16
M  V30 16 1 15 17
M  V30 17 2 15 18
M  V30 18 1 17 19
M  V30 19 2 17 20
M  V30 20 1 19 21
M  V30 21 1 19 22
M  V30 22 1 20 23
M  V30 23 1 21 24
M  V30 24 1 22 25
M  V30 25 1 22 26
M  V30 26 1 9 10
M  V30 27 1 16 18
M  V30 28 2 21 23
M  V30 29 1 5 27
M  V30 30 1 5 28
M  V30 31 1 5 29
M  V30 32 1 6 30
M  V30 33 1 7 31
M  V30 34 1 8 32
M  V30 35 1 9 33
M  V30 36 1 11 34
M  V30 37 1 16 35
M  V30 38 1 18 36
M  V30 39 1 20 37
M  V30 40 1 22 38
M  V30 41 1 23 39
M  V30 42 1 24 40
M  V30 43 1 24 41
M  V30 44 1 24 42
M  V30 45 1 25 43
M  V30 46 1 25 44
M  V30 47 1 25 45
M  V30 48 1 26 46
M  V30 49 1 26 47
M  V30 50 1 26 48
M  V30 END BOND
M  V30 END CTAB
M  END
>  <Molecule Name>
WJRRGYBTGDJBFX-MRHCIZOGNA-O

>  <hs_clash>
0.0

>  <hs_total>
151.3146313767546

>  <Total Molweight>
372.472

>  <cLogP>
0.1315

>  <H-Acceptors>
7

>  <H-Donors>
2

>  <Polar Surface Area>
99.4

>  <Non-H Atoms>
26

>  <sp3-Atoms>
6

$$$$
BNCZSQHEMDOHNQ-XRJCTRHONA-N
Actelion Java MolfileCreator 2.0

  0  0  0  0  0  0              0 V3000
M  V30 BEGIN CTAB
M  V30 COUNTS 52 56 0 0 0
M  V30 BEGIN ATOM
M  V30 1 Br 24.1584 4.1611 63.9753 0
M  V30 2 C 26.0428 4.6118 64.4463 0
M  V30 3 C 26.714 5.8677 64.0753 0
M  V30 4 C 26.9012 3.7818 65.1538 0
M  V30 5 N 26.2956 6.9642 63.3931 0
M  V30 6 N 27.9224 5.6955 64.5907 0
M  V30 7 N 28.0864 4.4588 65.2517 0
M  V30 8 C 27.1927 7.9776 63.2383 0
M  V30 9 C 28.8558 6.6623 64.4574 0
M  V30 10 C 26.8189 9.2017 62.4691 0
M  V30 11 C 28.4891 7.825 63.7594 0
M  V30 12 N 30.1034 6.5064 64.9933 0
M  V30 13 C 27.8192 9.8518 61.7286 0
M  V30 14 C 25.5001 9.6818 62.4272 0
M  V30 15 C 31.1922 7.4819 64.8792 0
M  V30 16 C 27.5234 10.9841 60.9717 0
M  V30 17 C 25.199 10.818 61.6659 0
M  V30 18 C 31.1833 8.6193 65.8717 0
M  V30 19 C 26.2155 11.4704 60.9477 0
M  V30 20 C 31.2618 9.9331 65.3958 0
M  V30 21 C 31.123 8.387 67.2481 0
M  V30 22 C 25.9304 12.6674 60.1123 0
M  V30 23 N 31.2609 10.9662 66.2635 0
M  V30 24 C 31.1251 9.4762 68.1245 0
M  V30 25 C 26.1733 13.9718 60.5678 0
M  V30 26 C 25.4247 12.4462 58.8245 0
M  V30 27 C 31.1929 10.7705 67.5989 0
M  V30 28 C 25.8908 15.0557 59.7245 0
M  V30 29 C 25.1435 13.5245 57.987 0
M  V30 30 C 25.3757 14.8339 58.4328 0
M  V30 31 C 25.0632 15.9883 57.5124 0
M  V30 32 O 25.3303 15.898 56.321 0
M  V30 33 N 24.4897 17.0852 58.0103 0
M  V30 34 H 26.6786 2.801 65.5475 0
M  V30 35 H 29.2143 8.6134 63.6209 0
M  V30 36 H 30.2015 5.8075 65.7018 0
M  V30 37 H 28.8291 9.4702 61.7461 0
M  V30 38 H 24.7211 9.1773 62.9798 0
M  V30 39 H 32.1411 6.9396 65.0009 0
M  V30 40 H 31.1455 7.9183 63.8706 0
M  V30 41 H 28.2995 11.481 60.4088 0
M  V30 42 H 24.1865 11.1927 61.6307 0
M  V30 43 H 31.3227 10.1201 64.3338 0
M  V30 44 H 31.0753 7.3782 67.6307 0
M  V30 45 H 31.0746 9.3207 69.1922 0
M  V30 46 H 26.5731 14.1395 61.557 0
M  V30 47 H 25.252 11.4376 58.4802 0
M  V30 48 H 31.1906 11.6205 68.2656 0
M  V30 49 H 26.0689 16.0647 60.0668 0
M  V30 50 H 24.7477 13.3521 56.997 0
M  V30 51 H 24.2698 17.8524 57.4076 0
M  V30 52 H 24.2789 17.1404 58.9865 0
M  V30 END ATOM
M  V30 BEGIN BOND
M  V30 1 1 1 2
M  V30 2 2 2 3
M  V30 3 1 2 4
M  V30 4 1 3 5
M  V30 5 1 3 6
M  V30 6 2 4 7
M  V30 7 2 5 8
M  V30 8 1 6 9
M  V30 9 1 8 10
M  V30 10 1 8 11
M  V30 11 1 9 12
M  V30 12 2 10 13
M  V30 13 1 10 14
M  V30 14 1 12 15
M  V30 15 1 13 16
M  V30 16 2 14 17
M  V30 17 1 15 18
M  V30 18 2 16 19
M  V30 19 2 18 20
M  V30 20 1 18 21
M  V30 21 1 19 22
M  V30 22 1 20 23
M  V30 23 2 21 24
M  V30 24 2 22 25
M  V30 25 1 22 26
M  V30 26 2 23 27
M  V30 27 1 25 28
M  V30 28 2 26 29
M  V30 29 2 28 30
M  V30 30 1 30 31
M  V30 31 2 31 32
M  V30 32 1 31 33
M  V30 33 1 6 7
M  V30 34 2 9 11
M  V30 35 1 17 19
M  V30 36 1 24 27
M  V30 37 1 29 30
M  V30 38 1 4 34
M  V30 39 1 11 35
M  V30 40 1 12 36
M  V30 41 1 13 37
M  V30 42 1 14 38
M  V30 43 1 15 39
M  V30 44 1 15 40
M  V30 45 1 16 41
M  V30 46 1 17 42
M  V30 47 1 20 43
M  V30 48 1 21 44
M  V30 49 1 24 45
M  V30 50 1 25 46
M  V30 51 1 26 47
M  V30 52 1 27 48
M  V30 53 1 28 49
M  V30 54 1 29 50
M  V30 55 1 33 51
M  V30 56 1 33 52
M  V30 END BOND
M  V30 END CTAB
M  END
>  <Molecule Name>
BNCZSQHEMDOHNQ-XRJCTRHONA-N

>  <hs_clash>
0.0

>  <hs_total>
150.96365864417464

>  <Total Molweight>
499.371

>  <cLogP>
3.1998

>  <H-Acceptors>
7

>  <H-Donors>
2

>  <Polar Surface Area>
98.2

>  <Non-H Atoms>
33

>  <sp3-Atoms>
1

$$$$
JDBYILINKOTBAJ-YHSKDTNENA-N
Actelion Java MolfileCreator 2.0

  0  0  0  0  0  0              0 V3000
M  V30 BEGIN CTAB
M  V30 COUNTS 32 33 0 0 0
M  V30 BEGIN ATOM
M  V30 1 Cl 26.1561 9.7863 63.1244 0
M  V30 2 C 26.4975 8.182 63.6385 0
M  V30 3 C 25.4955 7.1411 63.6276 0
M  V30 4 C 27.8164 7.8969 64.0917 0
M  V30 5 N 24.2784 7.3404 63.2205 0 CHG=1
M  V30 6 C 25.8645 5.8425 64.0933 0
M  V30 7 C 28.1843 6.5864 64.5544 0
M  V30 8 O 23.9861 8.2568 62.3283 0
M  V30 9 O 23.2985 6.5973 63.6744 0 CHG=-1
M  V30 10 C 27.1894 5.5535 64.5583 0
M  V30 11 N 29.3972 6.3336 64.9711 0
M  V30 12 C 27.4677 4.2836 65.0035 0
M  V30 13 C 30.5823 7.1646 64.6151 0
M  V30 14 O 28.3138 4.0893 65.8674 0
M  V30 15 N 26.767 3.224 64.498 0
M  V30 16 C 30.86 8.1754 65.7033 0
M  V30 17 C 31.0697 9.5335 65.3901 0
M  V30 18 C 30.9183 7.7999 67.0729 0
M  V30 19 N 31.3273 10.4946 66.3424 0
M  V30 20 C 31.1824 8.7701 68.075 0
M  V30 21 C 31.3802 10.0989 67.6625 0
M  V30 22 H 28.557 8.6828 64.088 0
M  V30 23 H 25.1246 5.0561 64.095 0
M  V30 24 H 29.5377 5.539 65.5616 0
M  V30 25 H 31.4592 6.5122 64.4934 0
M  V30 26 H 30.3844 7.6931 63.6709 0
M  V30 27 H 26.9472 2.2998 64.8339 0
M  V30 28 H 26.074 3.3736 63.7929 0
M  V30 29 H 31.0263 9.8349 64.354 0
M  V30 30 H 30.7607 6.7689 67.3532 0
M  V30 31 H 31.2291 8.4965 69.1188 0
M  V30 32 H 31.5838 10.846 68.4153 0
M  V30 END ATOM
M  V30 BEGIN BOND
M  V30 1 1 1 2
M  V30 2 2 2 3
M  V30 3 1 2 4
M  V30 4 1 3 5
M  V30 5 1 3 6
M  V30 6 2 4 7
M  V30 7 2 5 8
M  V30 8 1 5 9
M  V30 9 2 6 10
M  V30 10 1 7 11
M  V30 11 1 10 12
M  V30 12 1 11 13
M  V30 13 2 12 14
M  V30 14 1 12 15
M  V30 15 1 13 16
M  V30 16 2 16 17
M  V30 17 1 16 18
M  V30 18 1 17 19
M  V30 19 2 18 20
M  V30 20 2 19 21
M  V30 21 1 7 10
M  V30 22 1 20 21
M  V30 23 1 4 22
M  V30 24 1 6 23
M  V30 25 1 11 24
M  V30 26 1 13 25
M  V30 27 1 13 26
M  V30 28 1 15 27
M  V30 29 1 15 28
M  V30 30 1 17 29
M  V30 31 1 18 30
M  V30 32 1 20 31
M  V30 33 1 21 32
M  V30 END BOND
M  V30 END CTAB
M  END
>  <Molecule Name>
JDBYILINKOTBAJ-YHSKDTNENA-N

>  <hs_clash>
0.0

>  <hs_total>
150.26700400741785

>  <Total Molweight>
306.708

>  <cLogP>
0.4955

>  <H-Acceptors>
7

>  <H-Donors>
2

>  <Polar Surface Area>
113.83

>  <Non-H Atoms>
21

>  <sp3-Atoms>
2

$$$$
RPJIMTALCNCQLV-DZQCGVKKNA-N
Actelion Java MolfileCreator 2.0

  0  0  0  0  0  0              0 V3000
M  V30 BEGIN CTAB
M  V30 COUNTS 47 50 0 0 0
M  V30 BEGIN ATOM
M  V30 1 S 33.5465 10.9473 64.6916 0
M  V30 2 O 32.9315 12.0864 64.0009 0
M  V30 3 O 34.6699 10.445 63.909 0
M  V30 4 N 34.05 11.4024 66.1223 0
M  V30 5 C 32.3562 9.7039 64.8532 0
M  V30 6 C 32.0576 9.1854 66.0996 0
M  V30 7 C 31.6862 9.238 63.7135 0
M  V30 8 C 31.1019 8.1808 66.2197 0
M  V30 9 C 30.7176 8.2483 63.8274 0
M  V30 10 C 30.394 7.7343 65.0857 0
M  V30 11 N 29.5192 6.6933 65.2211 0
M  V30 12 C 28.3658 6.5036 64.4412 0
M  V30 13 N 27.7766 5.3029 64.4595 0
M  V30 14 C 27.7421 7.5579 63.6968 0
M  V30 15 N 28.1565 4.2105 65.0884 0
M  V30 16 C 26.673 5.0512 63.7754 0
M  V30 17 C 26.5778 7.2377 62.951 0
M  V30 18 C 27.2909 3.2209 64.7448 0
M  V30 19 N 26.0844 5.975 63.01 0
M  V30 20 N 26.3536 3.7677 63.9204 0
M  V30 21 O 25.8774 8.1715 62.2105 0
M  V30 22 C 26.5297 9.3635 62.0316 0
M  V30 23 C 25.9431 10.3838 63.0157 0
M  V30 24 C 26.2374 9.8293 60.5948 0
M  V30 25 C 26.5297 11.7798 62.7556 0
M  V30 26 C 26.815 11.2256 60.3416 0
M  V30 27 C 26.2011 12.221 61.3272 0
M  V30 28 H 34.4684 10.6252 66.5918 0
M  V30 29 H 33.4667 12.1403 66.4624 0
M  V30 30 H 32.5643 9.5588 66.9773 0
M  V30 31 H 31.9235 9.6498 62.7438 0
M  V30 32 H 30.9018 7.7418 67.1858 0
M  V30 33 H 30.2161 7.8779 62.9457 0
M  V30 34 H 29.8457 5.9002 65.735 0
M  V30 35 H 28.1435 8.5605 63.7032 0
M  V30 36 H 27.3371 2.1908 65.0661 0
M  V30 37 H 27.6155 9.2759 62.1838 0
M  V30 38 H 24.8508 10.4211 62.8908 0
M  V30 39 H 26.184 10.0756 64.0439 0
M  V30 40 H 26.6899 9.119 59.8876 0
M  V30 41 H 25.1484 9.8572 60.4404 0
M  V30 42 H 26.0963 12.497 63.4682 0
M  V30 43 H 27.6213 11.7474 62.8861 0
M  V30 44 H 26.5814 11.5376 59.3131 0
M  V30 45 H 27.906 11.2006 60.4786 0
M  V30 46 H 25.1096 12.2478 61.1921 0
M  V30 47 H 26.6175 13.2228 61.1463 0
M  V30 END ATOM
M  V30 BEGIN BOND
M  V30 1 2 1 2
M  V30 2 2 1 3
M  V30 3 1 1 4
M  V30 4 1 1 5
M  V30 5 2 5 6
M  V30 6 1 5 7
M  V30 7 1 6 8
M  V30 8 2 7 9
M  V30 9 2 8 10
M  V30 10 1 10 11
M  V30 11 1 11 12
M  V30 12 1 12 13
M  V30 13 2 12 14
M  V30 14 1 13 15
M  V30 15 1 13 16
M  V30 16 1 14 17
M  V30 17 2 15 18
M  V30 18 1 16 19
M  V30 19 2 16 20
M  V30 20 1 17 21
M  V30 21 1 21 22
M  V30 22 1 22 23
M  V30 23 1 22 24
M  V30 24 1 23 25
M  V30 25 1 24 26
M  V30 26 1 25 27
M  V30 27 1 9 10
M  V30 28 2 17 19
M  V30 29 1 18 20
M  V30 30 1 26 27
M  V30 31 1 4 28
M  V30 32 1 4 29
M  V30 33 1 6 30
M  V30 34 1 7 31
M  V30 35 1 8 32
M  V30 36 1 9 33
M  V30 37 1 11 34
M  V30 38 1 14 35
M  V30 39 1 18 36
M  V30 40 1 22 37
M  V30 41 1 23 38
M  V30 42 1 23 39
M  V30 43 1 24 40
M  V30 44 1 24 41
M  V30 45 1 25 42
M  V30 46 1 25 43
M  V30 47 1 26 44
M  V30 48 1 26 45
M  V30 49 1 27 46
M  V30 50 1 27 47
M  V30 END BOND
M  V30 END CTAB
M  END
>  <Molecule Name>
RPJIMTALCNCQLV-DZQCGVKKNA-N

>  <hs_clash>
3.0

>  <hs_total>
149.9905007597587

>  <Total Molweight>
388.451

>  <cLogP>
1.7422

>  <H-Acceptors>
9

>  <H-Donors>
2

>  <Polar Surface Area>
132.88

>  <Non-H Atoms>
27

>  <sp3-Atoms>
8

$$$$
BKDUVKJYBJDZQW-JFRKDZMVNA-N
Actelion Java MolfileCreator 2.0

  0  0  0  0  0  0              0 V3000
M  V30 BEGIN CTAB
M  V30 COUNTS 50 53 0 0 0
M  V30 BEGIN ATOM
M  V30 1 S 32.2293 9.8212 67.614 0
M  V30 2 O 32.0729 9.0354 68.812 0
M  V30 3 O 31.7336 11.1391 67.8754 0
M  V30 4 N 33.7848 9.8634 67.2669 0
M  V30 5 C 31.402 9.1629 66.4053 0
M  V30 6 C 30.7374 7.9484 66.5937 0
M  V30 7 C 31.334 9.7957 65.1646 0
M  V30 8 C 30.0089 7.3634 65.5549 0
M  V30 9 C 30.6167 9.2234 64.1136 0
M  V30 10 N 29.3873 6.1705 65.7923 0
M  V30 11 C 29.9593 8.0071 64.3081 0
M  V30 12 C 28.2446 5.741 65.1962 0
M  V30 13 N 27.4733 6.6162 64.4948 0
M  V30 14 N 27.8804 4.4317 65.327 0
M  V30 15 C 26.3304 6.2554 63.861 0
M  V30 16 C 26.7402 3.9917 64.7345 0
M  V30 17 O 25.576 7.158 63.1511 0
M  V30 18 C 25.8927 4.8551 63.9673 0
M  V30 19 N 26.2122 2.7207 64.7392 0
M  V30 20 C 25.8878 8.5403 63.29 0
M  V30 21 N 24.8205 4.1331 63.4913 0
M  V30 22 C 25.0606 2.8636 63.9815 0
M  V30 23 C 25.1632 9.3156 62.21 0
M  V30 24 C 25.5223 10.8 62.3446 0
M  V30 25 C 25.588 8.7839 60.8422 0
M  V30 26 C 24.8478 11.6035 61.2245 0
M  V30 27 C 24.8979 9.5663 59.7288 0
M  V30 28 C 25.2346 11.056 59.85 0
M  V30 29 H 34.317 9.7958 68.111 0
M  V30 30 H 34.0137 9.0972 66.6668 0
M  V30 31 H 30.7872 7.4563 67.5537 0
M  V30 32 H 31.841 10.7376 65.0162 0
M  V30 33 H 30.57 9.7191 63.1552 0
M  V30 34 H 29.9347 5.4714 66.2521 0
M  V30 35 H 29.4094 7.5587 63.4941 0
M  V30 36 H 26.5705 1.8983 65.1805 0
M  V30 37 H 26.9729 8.6865 63.1851 0
M  V30 38 H 25.5639 8.8949 64.2797 0
M  V30 39 H 24.3943 2.0364 63.7866 0
M  V30 40 H 24.0767 9.1907 62.3304 0
M  V30 41 H 25.1756 11.1723 63.3201 0
M  V30 42 H 26.6133 10.9194 62.2734 0
M  V30 43 H 26.6778 8.8875 60.736 0
M  V30 44 H 25.3109 7.7223 60.7645 0
M  V30 45 H 23.7558 11.54 61.343 0
M  V30 46 H 25.1635 12.655 61.2951 0
M  V30 47 H 23.809 9.4312 59.8094 0
M  V30 48 H 25.2425 9.1929 58.7535 0
M  V30 49 H 24.6855 11.6116 59.0756 0
M  V30 50 H 26.3158 11.192 59.7018 0
M  V30 END ATOM
M  V30 BEGIN BOND
M  V30 1 2 1 2
M  V30 2 2 1 3
M  V30 3 1 1 4
M  V30 4 1 1 5
M  V30 5 2 5 6
M  V30 6 1 5 7
M  V30 7 1 6 8
M  V30 8 2 7 9
M  V30 9 1 8 10
M  V30 10 2 8 11
M  V30 11 1 10 12
M  V30 12 2 12 13
M  V30 13 1 12 14
M  V30 14 1 13 15
M  V30 15 2 14 16
M  V30 16 1 15 17
M  V30 17 2 15 18
M  V30 18 1 16 19
M  V30 19 1 17 20
M  V30 20 1 18 21
M  V30 21 1 19 22
M  V30 22 1 20 23
M  V30 23 1 23 24
M  V30 24 1 23 25
M  V30 25 1 24 26
M  V30 26 1 25 27
M  V30 27 1 26 28
M  V30 28 1 9 11
M  V30 29 1 16 18
M  V30 30 2 21 22
M  V30 31 1 27 28
M  V30 32 1 4 29
M  V30 33 1 4 30
M  V30 34 1 6 31
M  V30 35 1 7 32
M  V30 36 1 9 33
M  V30 37 1 10 34
M  V30 38 1 11 35
M  V30 39 1 19 36
M  V30 40 1 20 37
M  V30 41 1 20 38
M  V30 42 1 22 39
M  V30 43 1 23 40
M  V30 44 1 24 41
M  V30 45 1 24 42
M  V30 46 1 25 43
M  V30 47 1 25 44
M  V30 48 1 26 45
M  V30 49 1 26 46
M  V30 50 1 27 47
M  V30 51 1 27 48
M  V30 52 1 28 49
M  V30 53 1 28 50
M  V30 END BOND
M  V30 END CTAB
M  END
>  <Molecule Name>
BKDUVKJYBJDZQW-JFRKDZMVNA-N

>  <hs_clash>
0.0

>  <hs_total>
149.53519232049976

>  <Total Molweight>
402.478

>  <cLogP>
2.6746

>  <H-Acceptors>
9

>  <H-Donors>
3

>  <Polar Surface Area>
144.26

>  <Non-H Atoms>
28

>  <sp3-Atoms>
9

$$$$
LUCORKWTQSQFFU-VPQZEOPVNA-N
Actelion Java MolfileCreator 2.0

  0  0  0  0  0  0              0 V3000
M  V30 BEGIN CTAB
M  V30 COUNTS 30 32 0 0 0
M  V30 BEGIN ATOM
M  V30 1 O 29.2474 7.8863 64.0232 0
M  V30 2 C 29.8863 7.4371 64.9907 0
M  V30 3 N 29.529 6.2536 65.5575 0
M  V30 4 C 31.0711 8.2117 65.5825 0
M  V30 5 C 28.5452 5.2466 65.1683 0
M  V30 6 C 31.7892 9.1134 64.7222 0
M  V30 7 C 31.4915 8.1281 66.9571 0
M  V30 8 N 28.5713 3.9138 65.5095 0
M  V30 9 C 27.4188 5.4914 64.3805 0
M  V30 10 C 32.8708 9.8944 65.2123 0
M  V30 11 C 32.572 8.9099 67.4411 0
M  V30 12 N 27.4863 3.3322 64.9462 0
M  V30 13 C 26.7588 4.2757 64.2448 0
M  V30 14 C 33.2569 9.7896 66.5673 0
M  V30 15 C 25.4619 3.9796 63.4664 0
M  V30 16 C 24.3309 5.0034 63.6778 0
M  V30 17 C 24.8454 4.635 62.2674 0
M  V30 18 H 30.0314 6.0327 66.3933 0
M  V30 19 H 31.5012 9.1987 63.685 0
M  V30 20 H 30.976 7.4595 67.6308 0
M  V30 21 H 27.119 6.4396 63.9592 0
M  V30 22 H 33.3963 10.5666 64.5502 0
M  V30 23 H 32.872 8.8344 68.476 0
M  V30 24 H 27.2471 2.3647 65.0255 0
M  V30 25 H 34.079 10.3834 66.9389 0
M  V30 26 H 25.1179 2.945 63.6115 0
M  V30 27 H 23.3361 4.6713 64.0101 0
M  V30 28 H 24.5498 5.9919 64.1079 0
M  V30 29 H 25.4233 5.3686 61.6864 0
M  V30 30 H 24.2095 4.048 61.5884 0
M  V30 END ATOM
M  V30 BEGIN BOND
M  V30 1 2 1 2
M  V30 2 1 2 3
M  V30 3 1 2 4
M  V30 4 1 3 5
M  V30 5 2 4 6
M  V30 6 1 4 7
M  V30 7 2 5 8
M  V30 8 1 5 9
M  V30 9 1 6 10
M  V30 10 2 7 11
M  V30 11 1 8 12
M  V30 12 2 9 13
M  V30 13 2 10 14
M  V30 14 1 13 15
M  V30 15 1 15 16
M  V30 16 1 15 17
M  V30 17 1 11 14
M  V30 18 1 12 13
M  V30 19 1 16 17
M  V30 20 1 3 18
M  V30 21 1 6 19
M  V30 22 1 7 20
M  V30 23 1 9 21
M  V30 24 1 10 22
M  V30 25 1 11 23
M  V30 26 1 12 24
M  V30 27 1 14 25
M  V30 28 1 15 26
M  V30 29 1 16 27
M  V30 30 1 16 28
M  V30 31 1 17 29
M  V30 32 1 17 30
M  V30 END BOND
M  V30 END CTAB
M  END
>  <Molecule Name>
LUCORKWTQSQFFU-VPQZEOPVNA-N

>  <hs_clash>
0.0

>  <hs_total>
149.06563344235016

>  <Total Molweight>
227.266

>  <cLogP>
2.2169

>  <H-Acceptors>
4

>  <H-Donors>
2

>  <Polar Surface Area>
57.78

>  <Non-H Atoms>
17

>  <sp3-Atoms>
3

$$$$
RLTGDIGMSOHYGA-YHSKDTNENA-N
Actelion Java MolfileCreator 2.0

  0  0  0  0  0  0              0 V3000
M  V30 BEGIN CTAB
M  V30 COUNTS 32 33 0 0 0
M  V30 BEGIN ATOM
M  V30 1 Cl 32.1555 11.2884 68.5324 0
M  V30 2 C 31.7998 10.085 67.3622 0
M  V30 3 N 31.4396 8.8267 67.7984 0
M  V30 4 C 31.8949 10.4398 66.0071 0
M  V30 5 C 31.1622 7.8773 66.8376 0
M  V30 6 C 31.6012 9.4426 65.0457 0
M  V30 7 C 31.23 8.1416 65.4522 0
M  V30 8 C 30.915 7.0847 64.4237 0
M  V30 9 N 29.6487 6.403 64.773 0
M  V30 10 C 28.4739 6.7219 64.2976 0
M  V30 11 C 27.4027 5.7627 64.3723 0
M  V30 12 C 28.2169 8.0101 63.6977 0
M  V30 13 C 27.594 4.5122 64.9343 0
M  V30 14 C 26.1092 6.1019 63.8535 0
M  V30 15 C 26.9241 8.3304 63.1867 0
M  V30 16 O 28.4148 4.3452 65.816 0
M  V30 17 N 26.8652 3.4374 64.4881 0
M  V30 18 C 25.858 7.376 63.2601 0
M  V30 19 N 24.6905 7.6582 62.7986 0 CHG=1
M  V30 20 O 23.6414 6.8998 63.0865 0
M  V30 21 O 24.5129 8.702 62.0166 0 CHG=-1
M  V30 22 H 32.1814 11.4376 65.7087 0
M  V30 23 H 30.8798 6.8858 67.1599 0
M  V30 24 H 31.6618 9.6785 63.9936 0
M  V30 25 H 31.7308 6.3476 64.3969 0
M  V30 26 H 30.8143 7.5567 63.4352 0
M  V30 27 H 29.6953 5.6424 65.4208 0
M  V30 28 H 29.0118 8.7387 63.6356 0
M  V30 29 H 25.3089 5.3792 63.9131 0
M  V30 30 H 26.7476 9.2987 62.7416 0
M  V30 31 H 27.0129 2.5326 64.8874 0
M  V30 32 H 26.1863 3.5597 63.7638 0
M  V30 END ATOM
M  V30 BEGIN BOND
M  V30 1 1 1 2
M  V30 2 2 2 3
M  V30 3 1 2 4
M  V30 4 1 3 5
M  V30 5 2 4 6
M  V30 6 2 5 7
M  V30 7 1 7 8
M  V30 8 1 8 9
M  V30 9 1 9 10
M  V30 10 2 10 11
M  V30 11 1 10 12
M  V30 12 1 11 13
M  V30 13 1 11 14
M  V30 14 2 12 15
M  V30 15 2 13 16
M  V30 16 1 13 17
M  V30 17 2 14 18
M  V30 18 1 18 19
M  V30 19 2 19 20
M  V30 20 1 19 21
M  V30 21 1 6 7
M  V30 22 1 15 18
M  V30 23 1 4 22
M  V30 24 1 5 23
M  V30 25 1 6 24
M  V30 26 1 8 25
M  V30 27 1 8 26
M  V30 28 1 9 27
M  V30 29 1 12 28
M  V30 30 1 14 29
M  V30 31 1 15 30
M  V30 32 1 17 31
M  V30 33 1 17 32
M  V30 END BOND
M  V30 END CTAB
M  END
>  <Molecule Name>
RLTGDIGMSOHYGA-YHSKDTNENA-N

>  <hs_clash>
0.0

>  <hs_total>
148.94320217922055

>  <Total Molweight>
306.708

>  <cLogP>
0.5929

>  <H-Acceptors>
7

>  <H-Donors>
2

>  <Polar Surface Area>
113.83

>  <Non-H Atoms>
21

>  <sp3-Atoms>
2

$$$$
BUXUEPKVOZSCGP-UHFFFAOYNA-N
Actelion Java MolfileCreator 2.0

  0  0  0  0  0  0              0 V3000
M  V30 BEGIN CTAB
M  V30 COUNTS 38 41 0 0 0
M  V30 BEGIN ATOM
M  V30 1 Br 25.6903 12.4317 62.3211 0
M  V30 2 C 25.9771 10.7291 61.5301 0
M  V30 3 C 26.411 9.6677 62.3178 0
M  V30 4 C 25.7084 10.5253 60.1581 0
M  V30 5 C 26.6083 8.3884 61.7454 0
M  V30 6 C 25.8926 9.2509 59.5816 0
M  V30 7 C 27.0758 7.264 62.6021 0
M  V30 8 C 26.3556 8.1835 60.3734 0
M  V30 9 N 26.3544 6.1317 62.6843 0
M  V30 10 C 28.2679 7.3828 63.335 0
M  V30 11 C 26.7904 5.1113 63.486 0
M  V30 12 C 28.6798 6.3167 64.1397 0
M  V30 13 N 27.8973 5.2184 64.2177 0
M  V30 14 C 26.2243 3.8935 63.7165 0
M  V30 15 N 29.8777 6.4005 64.9006 0
M  V30 16 N 28.1045 4.098 64.8887 0
M  V30 17 C 27.0661 3.245 64.605 0
M  V30 18 C 31.0071 7.2036 64.4203 0
M  V30 19 C 31.2541 8.3447 65.3951 0
M  V30 20 C 31.0264 8.16 66.7544 0
M  V30 21 C 31.6973 9.5775 64.9346 0
M  V30 22 C 31.2264 9.2223 67.6419 0
M  V30 23 C 31.8981 10.6188 65.8412 0
M  V30 24 N 31.6536 10.4302 67.1823 0
M  V30 25 H 26.5981 9.8208 63.3707 0
M  V30 26 H 25.3609 11.3471 59.5492 0
M  V30 27 H 25.6788 9.0949 58.5346 0
M  V30 28 H 26.5166 7.2113 59.9318 0
M  V30 29 H 28.8581 8.2856 63.2778 0
M  V30 30 H 25.3068 3.512 63.2932 0
M  V30 31 H 30.1219 5.576 65.4112 0
M  V30 32 H 26.9304 2.25 65.0027 0
M  V30 33 H 31.9061 6.5735 64.3551 0
M  V30 34 H 30.7725 7.6124 63.4264 0
M  V30 35 H 30.6963 7.2001 67.1235 0
M  V30 36 H 31.8852 9.7294 63.882 0
M  V30 37 H 31.0408 9.0839 68.6971 0
M  V30 38 H 32.2474 11.5781 65.4887 0
M  V30 END ATOM
M  V30 BEGIN BOND
M  V30 1 1 1 2
M  V30 2 2 2 3
M  V30 3 1 2 4
M  V30 4 1 3 5
M  V30 5 2 4 6
M  V30 6 1 5 7
M  V30 7 2 5 8
M  V30 8 2 7 9
M  V30 9 1 7 10
M  V30 10 1 9 11
M  V30 11 2 10 12
M  V30 12 1 11 13
M  V30 13 2 11 14
M  V30 14 1 12 15
M  V30 15 1 13 16
M  V30 16 1 14 17
M  V30 17 1 15 18
M  V30 18 1 18 19
M  V30 19 2 19 20
M  V30 20 1 19 21
M  V30 21 1 20 22
M  V30 22 2 21 23
M  V30 23 2 22 24
M  V30 24 1 6 8
M  V30 25 1 12 13
M  V30 26 2 16 17
M  V30 27 1 23 24
M  V30 28 1 3 25
M  V30 29 1 4 26
M  V30 30 1 6 27
M  V30 31 1 8 28
M  V30 32 1 10 29
M  V30 33 1 14 30
M  V30 34 1 15 31
M  V30 35 1 17 32
M  V30 36 1 18 33
M  V30 37 1 18 34
M  V30 38 1 20 35
M  V30 39 1 21 36
M  V30 40 1 22 37
M  V30 41 1 23 38
M  V30 END BOND
M  V30 END CTAB
M  END
>  <Molecule Name>
BUXUEPKVOZSCGP-UHFFFAOYNA-N

>  <hs_clash>
0.0

>  <hs_total>
148.75064107636106

>  <Total Molweight>
380.248

>  <cLogP>
2.4533

>  <H-Acceptors>
5

>  <H-Donors>
1

>  <Polar Surface Area>
55.11

>  <Non-H Atoms>
24

>  <sp3-Atoms>
1

$$$$
BKOYUSKBPMSUBK-WRDIIZFPNA-O
Actelion Java MolfileCreator 2.0

  0  0  0  0  0  0              0 V3000
M  V30 BEGIN CTAB
M  V30 COUNTS 55 58 0 0 0
M  V30 BEGIN ATOM
M  V30 1 S 25.7647 7.6371 62.1369 0
M  V30 2 C 24.1401 8.0742 61.7011 0
M  V30 3 C 25.3247 6.5152 63.3643 0
M  V30 4 N 23.3196 7.3608 62.4925 0
M  V30 5 N 23.7513 9.0154 60.6857 0
M  V30 6 C 26.2113 5.7749 64.1453 0
M  V30 7 C 23.9147 6.5305 63.3779 0
M  V30 8 C 24.7535 9.6621 59.8891 0
M  V30 9 N 27.1616 6.434 64.8718 0
M  V30 10 C 26.1636 4.3606 64.1862 0
M  V30 11 C 23.0829 5.662 64.3427 0
M  V30 12 C 28.0459 5.7629 65.6165 0
M  V30 13 C 25.15 3.5962 63.4068 0
M  V30 14 C 27.0818 3.6853 64.9718 0
M  V30 15 N 28.0111 4.3986 65.6839 0
M  V30 16 N 29.0464 6.51 66.4015 0
M  V30 17 N 24.3775 3.0116 62.8167 0
M  V30 18 C 29.7307 7.6329 65.8848 0
M  V30 19 C 30.4636 8.4236 66.7544 0
M  V30 20 C 29.6678 7.9677 64.4901 0
M  V30 21 C 31.1606 9.5664 66.2688 0
M  V30 22 C 30.3525 9.0892 64.0091 0
M  V30 23 N 31.9451 10.4007 67.2033 0
M  V30 24 C 31.1036 9.8934 64.8935 0
M  V30 25 C 31.9029 9.7384 68.4777 0
M  V30 26 C 31.9362 11.8342 67.3338 0
M  V30 27 C 33.2602 9.3715 69.01 0
M  V30 28 C 33.2332 12.356 67.8609 0
M  V30 29 N 34.1344 10.4963 69.1673 0 CHG=1
M  V30 30 C 34.2754 11.2796 67.9741 0
M  V30 31 H 22.8871 8.8206 60.2216 0
M  V30 32 H 24.2701 10.3419 59.1717 0
M  V30 33 H 25.4264 10.2369 60.5424 0
M  V30 34 H 25.3324 8.9036 59.3423 0
M  V30 35 H 22.4321 4.9902 63.7637 0
M  V30 36 H 23.7581 5.065 64.9733 0
M  V30 37 H 22.4646 6.3114 64.9803 0
M  V30 38 H 27.0659 2.6067 65.0234 0
M  V30 39 H 29.5813 5.951 67.035 0
M  V30 40 H 30.5062 8.1727 67.8043 0
M  V30 41 H 29.0922 7.3544 63.8129 0
M  V30 42 H 30.3061 9.3401 62.9596 0
M  V30 43 H 31.6342 10.757 64.5207 0
M  V30 44 H 31.3102 8.8179 68.3721 0
M  V30 45 H 31.4148 10.4077 69.2018 0
M  V30 46 H 31.7493 12.2796 66.3455 0
M  V30 47 H 31.1302 12.1232 68.0247 0
M  V30 48 H 33.7276 8.6616 68.3122 0
M  V30 49 H 33.1313 8.8907 69.9911 0
M  V30 50 H 33.6032 13.1372 67.1804 0
M  V30 51 H 33.0619 12.7893 68.8575 0
M  V30 52 H 35.0377 10.1607 69.4346 0
M  V30 53 H 33.7694 11.083 69.8904 0
M  V30 54 H 34.1887 10.6133 67.1033 0
M  V30 55 H 35.2691 11.751 67.978 0
M  V30 END ATOM
M  V30 BEGIN BOND
M  V30 1 1 1 2
M  V30 2 1 1 3
M  V30 3 2 2 4
M  V30 4 1 2 5
M  V30 5 1 3 6
M  V30 6 2 3 7
M  V30 7 1 5 8
M  V30 8 2 6 9
M  V30 9 1 6 10
M  V30 10 1 7 11
M  V30 11 1 9 12
M  V30 12 1 10 13
M  V30 13 2 10 14
M  V30 14 2 12 15
M  V30 15 1 12 16
M  V30 16 3 13 17
M  V30 17 1 16 18
M  V30 18 2 18 19
M  V30 19 1 18 20
M  V30 20 1 19 21
M  V30 21 2 20 22
M  V30 22 1 21 23
M  V30 23 2 21 24
M  V30 24 1 23 25
M  V30 25 1 23 26
M  V30 26 1 25 27
M  V30 27 1 26 28
M  V30 28 1 27 29
M  V30 29 1 28 30
M  V30 30 1 4 7
M  V30 31 1 14 15
M  V30 32 1 22 24
M  V30 33 1 29 30
M  V30 34 1 5 31
M  V30 35 1 8 32
M  V30 36 1 8 33
M  V30 37 1 8 34
M  V30 38 1 11 35
M  V30 39 1 11 36
M  V30 40 1 11 37
M  V30 41 1 14 38
M  V30 42 1 16 39
M  V30 43 1 19 40
M  V30 44 1 20 41
M  V30 45 1 22 42
M  V30 46 1 24 43
M  V30 47 1 25 44
M  V30 48 1 25 45
M  V30 49 1 26 46
M  V30 50 1 26 47
M  V30 51 1 27 48
M  V30 52 1 27 49
M  V30 53 1 28 50
M  V30 54 1 28 51
M  V30 55 1 29 52
M  V30 56 1 29 53
M  V30 57 1 30 54
M  V30 58 1 30 55
M  V30 END BOND
M  V30 END CTAB
M  END
>  <Molecule Name>
BKOYUSKBPMSUBK-WRDIIZFPNA-O

>  <hs_clash>
0.0

>  <hs_total>
147.7423361906589

>  <Total Molweight>
421.552

>  <cLogP>
3.0978

>  <H-Acceptors>
8

>  <H-Donors>
3

>  <Polar Surface Area>
134.61

>  <Non-H Atoms>
30

>  <sp3-Atoms>
8

$$$$
LDOOUPSIRAPDLT-YAQRNVERNA-N
Actelion Java MolfileCreator 2.0

  0  0  0  0  0  0              0 V3000
M  V30 BEGIN CTAB
M  V30 COUNTS 33 34 0 0 0
M  V30 BEGIN ATOM
M  V30 1 S 28.3459 6.9006 64.1388 0
M  V30 2 C 29.0496 5.8378 65.2899 0
M  V30 3 C 27.3718 5.5998 63.5746 0
M  V30 4 N 28.5741 4.5679 65.2629 0
M  V30 5 N 30.0336 6.217 66.1794 0
M  V30 6 C 27.6351 4.4172 64.3144 0
M  V30 7 C 26.4794 5.7495 62.5319 0
M  V30 8 C 30.4716 7.6146 66.2821 0
M  V30 9 N 27.0325 3.2102 64.1269 0
M  V30 10 O 25.7589 4.6994 62.099 0
M  V30 11 C 26.2405 7.0275 61.7871 0
M  V30 12 C 31.3821 8.0043 65.1405 0
M  V30 13 C 26.1225 8.2886 62.4692 0
M  V30 14 C 26.1029 6.992 60.3639 0
M  V30 15 C 30.9909 9.0576 64.1695 0
M  V30 16 C 25.8725 9.5123 61.7588 0
M  V30 17 C 25.852 8.189 59.6407 0
M  V30 18 N 25.7707 10.6838 62.4134 0 CHG=1
M  V30 19 C 25.7374 9.429 60.3206 0
M  V30 20 O 25.5528 11.7227 61.8311 0
M  V30 21 O 25.9073 10.7595 63.7401 0 CHG=-1
M  V30 22 H 30.6225 5.5071 66.5649 0
M  V30 23 H 29.5861 8.267 66.2697 0
M  V30 24 H 31.0125 7.7491 67.2306 0
M  V30 25 H 27.404 2.5473 64.7769 0
M  V30 26 H 26.3654 3.2817 63.3856 0
M  V30 27 H 32.3343 7.5079 65.029 0
M  V30 28 H 26.2244 8.3164 63.544 0
M  V30 29 H 26.1898 6.0529 59.8377 0
M  V30 30 H 31.6566 9.3208 63.361 0
M  V30 31 H 30.0407 9.5609 64.272 0
M  V30 32 H 25.7478 8.1549 58.5664 0
M  V30 33 H 25.5457 10.3282 59.7537 0
M  V30 END ATOM
M  V30 BEGIN BOND
M  V30 1 1 1 2
M  V30 2 1 1 3
M  V30 3 2 2 4
M  V30 4 1 2 5
M  V30 5 2 3 6
M  V30 6 1 3 7
M  V30 7 1 5 8
M  V30 8 1 6 9
M  V30 9 2 7 10
M  V30 10 1 7 11
M  V30 11 1 8 12
M  V30 12 2 11 13
M  V30 13 1 11 14
M  V30 14 2 12 15
M  V30 15 1 13 16
M  V30 16 2 14 17
M  V30 17 1 16 18
M  V30 18 2 16 19
M  V30 19 2 18 20
M  V30 20 1 18 21
M  V30 21 1 4 6
M  V30 22 1 17 19
M  V30 23 1 5 22
M  V30 24 1 8 23
M  V30 25 1 8 24
M  V30 26 1 9 25
M  V30 27 1 9 26
M  V30 28 1 12 27
M  V30 29 1 13 28
M  V30 30 1 14 29
M  V30 31 1 15 30
M  V30 32 1 15 31
M  V30 33 1 17 32
M  V30 34 1 19 33
M  V30 END BOND
M  V30 END CTAB
M  END
>  <Molecule Name>
LDOOUPSIRAPDLT-YAQRNVERNA-N

>  <hs_clash>
0.0

>  <hs_total>
147.71153273169514

>  <Total Molweight>
304.329

>  <cLogP>
1.4014

>  <H-Acceptors>
7

>  <H-Donors>
2

>  <Polar Surface Area>
142.07

>  <Non-H Atoms>
21

>  <sp3-Atoms>
2

$$$$
FIZSPBCJAWUURL-ASVXZIMGNA-N
Actelion Java MolfileCreator 2.0

  0  0  0  0  0  0              0 V3000
M  V30 BEGIN CTAB
M  V30 COUNTS 50 52 0 0 0
M  V30 BEGIN ATOM
M  V30 1 S 26.9008 6.3133 64.451 0
M  V30 2 C 28.3137 5.6527 65.2216 0
M  V30 3 C 26.2231 4.7035 64.4389 0
M  V30 4 N 28.2824 4.3731 65.4663 0
M  V30 5 N 29.481 6.3585 65.4448 0
M  V30 6 S 24.5816 4.5088 63.8477 0
M  V30 7 C 27.1107 3.8419 64.9971 0
M  V30 8 C 29.7488 7.6278 65.0082 0
M  V30 9 C 24.8678 4.577 62.0731 0
M  V30 10 O 28.9593 8.2972 64.3475 0
M  V30 11 C 31.1456 8.1403 65.3517 0 CFG=1
M  V30 12 C 24.5008 5.9414 61.6487 0
M  V30 13 C 31.0189 9.1856 66.4534 0
M  V30 14 C 31.8317 8.6552 64.0861 0
M  V30 15 O 25.4844 6.8424 61.3513 0
M  V30 16 N 23.2786 6.4644 61.6023 0
M  V30 17 C 31.2638 8.8265 67.7723 0
M  V30 18 C 30.7047 10.5121 66.1744 0
M  V30 19 C 24.8234 8.0317 61.1218 0
M  V30 20 C 23.4669 7.7769 61.2677 0
M  V30 21 C 31.2315 9.7764 68.7828 0
M  V30 22 C 30.6822 11.4631 67.1837 0
M  V30 23 C 25.5931 9.3198 60.8303 0
M  V30 24 C 30.9562 11.0967 68.4874 0
M  V30 25 C 24.6852 10.5375 60.9958 0
M  V30 26 C 26.12 9.2923 59.3968 0
M  V30 27 C 26.7681 9.4569 61.7982 0
M  V30 28 H 30.1948 5.9001 65.974 0
M  V30 29 H 26.9022 2.7847 65.0678 0
M  V30 30 H 24.2401 3.8356 61.5573 0
M  V30 31 H 25.9266 4.3802 61.8502 0
M  V30 32 H 31.7341 7.2975 65.7429 0
M  V30 33 H 32.8372 9.0234 64.3376 0
M  V30 34 H 31.9126 7.8376 63.3551 0
M  V30 35 H 31.2382 9.4751 63.6552 0
M  V30 36 H 31.4817 7.7969 68.0141 0
M  V30 37 H 30.4753 10.8046 65.1602 0
M  V30 38 H 22.6797 8.505 61.1368 0
M  V30 39 H 31.4222 9.4823 69.8043 0
M  V30 40 H 30.4503 12.4917 66.9504 0
M  V30 41 H 30.9549 11.8396 69.2717 0
M  V30 42 H 25.256 11.4531 60.7823 0
M  V30 43 H 23.839 10.4618 60.2972 0
M  V30 44 H 24.306 10.5748 62.028 0
M  V30 45 H 26.6729 10.2207 59.1912 0
M  V30 46 H 26.7907 8.4301 59.2697 0
M  V30 47 H 25.2754 9.2063 58.6975 0
M  V30 48 H 27.3159 10.3859 61.5815 0
M  V30 49 H 26.3909 9.4867 62.8313 0
M  V30 50 H 27.4431 8.5968 61.6792 0
M  V30 END ATOM
M  V30 BEGIN BOND
M  V30 1 1 1 2
M  V30 2 1 1 3
M  V30 3 2 2 4
M  V30 4 1 2 5
M  V30 5 1 3 6
M  V30 6 2 3 7
M  V30 7 1 5 8
M  V30 8 1 6 9
M  V30 9 2 8 10
M  V30 10 1 8 11
M  V30 11 1 9 12
M  V30 12 1 11 13
M  V30 13 1 11 14
M  V30 14 1 12 15
M  V30 15 2 12 16
M  V30 16 2 13 17
M  V30 17 1 13 18
M  V30 18 1 15 19
M  V30 19 1 16 20
M  V30 20 1 17 21
M  V30 21 2 18 22
M  V30 22 1 19 23
M  V30 23 2 21 24
M  V30 24 1 23 25
M  V30 25 1 23 26
M  V30 26 1 23 27
M  V30 27 1 4 7
M  V30 28 2 19 20
M  V30 29 1 22 24
M  V30 30 1 5 28
M  V30 31 1 7 29
M  V30 32 1 9 30
M  V30 33 1 9 31
M  V30 34 1 11 32
M  V30 35 1 14 33
M  V30 36 1 14 34
M  V30 37 1 14 35
M  V30 38 1 17 36
M  V30 39 1 18 37
M  V30 40 1 20 38
M  V30 41 1 21 39
M  V30 42 1 22 40
M  V30 43 1 24 41
M  V30 44 1 25 42
M  V30 45 1 25 43
M  V30 46 1 25 44
M  V30 47 1 26 45
M  V30 48 1 26 46
M  V30 49 1 26 47
M  V30 50 1 27 48
M  V30 51 1 27 49
M  V30 52 1 27 50
M  V30 END BOND
M  V30 BEGIN COLLECTION
M  V30 MDLV30/STERAC1 ATOMS=(1 11)
M  V30 END COLLECTION
M  V30 END CTAB
M  END
>  <Molecule Name>
FIZSPBCJAWUURL-ASVXZIMGNA-N

>  <hs_clash>
0.0

>  <hs_total>
147.46935770658732

>  <Total Molweight>
401.554

>  <cLogP>
5.1219

>  <H-Acceptors>
5

>  <H-Donors>
1

>  <Polar Surface Area>
121.56

>  <Non-H Atoms>
27

>  <sp3-Atoms>
8

$$$$
SIKZOJIFMBUYSK-PDJAEHLQNA-N
Actelion Java MolfileCreator 2.0

  0  0  0  0  0  0              0 V3000
M  V30 BEGIN CTAB
M  V30 COUNTS 54 57 0 0 0
M  V30 BEGIN ATOM
M  V30 1 S 32.145 11.1805 64.9061 0
M  V30 2 O 33.0653 11.3622 65.9982 0
M  V30 3 O 32.6716 11.1221 63.5682 0
M  V30 4 C 31.2183 9.6995 65.1975 0
M  V30 5 C 30.9201 12.4721 64.9721 0
M  V30 6 C 31.3161 9.0465 66.4159 0
M  V30 7 C 30.4219 9.1856 64.1871 0
M  V30 8 C 30.9872 13.5314 63.9071 0
M  V30 9 C 30.6087 7.8768 66.6301 0
M  V30 10 C 29.7144 8.0198 64.3915 0
M  V30 11 C 29.8005 7.3514 65.6184 0
M  V30 12 N 29.0438 6.1371 65.8285 0
M  V30 13 C 27.9086 5.7432 65.2379 0
M  V30 14 N 27.1301 6.6569 64.6267 0
M  V30 15 N 27.6642 4.4229 65.2931 0
M  V30 16 C 26.0223 6.2568 64.0173 0
M  V30 17 C 26.5194 4.0577 64.7064 0
M  V30 18 O 25.1732 7.15 63.3859 0
M  V30 19 C 25.6595 4.9158 64.0436 0
M  V30 20 N 25.986 2.8351 64.6062 0
M  V30 21 C 25.4989 8.5534 63.4998 0
M  V30 22 N 24.6231 4.2249 63.5604 0
M  V30 23 C 24.8327 2.9781 63.9324 0
M  V30 24 C 24.9632 9.289 62.3072 0
M  V30 25 C 25.488 10.7296 62.3015 0
M  V30 26 C 25.3195 8.576 61.0052 0
M  V30 27 C 25.024 11.4991 61.0632 0
M  V30 28 C 24.8412 9.3541 59.7887 0
M  V30 29 C 25.4009 10.7697 59.7917 0
M  V30 30 H 29.931 11.9956 64.904 0
M  V30 31 H 31.0188 12.9741 65.9459 0
M  V30 32 H 31.9434 9.4497 67.1971 0
M  V30 33 H 30.355 9.6984 63.2391 0
M  V30 34 H 30.1798 14.2619 64.0643 0
M  V30 35 H 31.9595 14.0431 63.9601 0
M  V30 36 H 30.8718 13.0643 62.9181 0
M  V30 37 H 30.6811 7.3691 67.5807 0
M  V30 38 H 29.0927 7.6218 63.6036 0
M  V30 39 H 29.5439 5.41 66.2985 0
M  V30 40 H 26.3696 1.9833 64.9626 0
M  V30 41 H 26.5912 8.674 63.5449 0
M  V30 42 H 25.0469 8.9619 64.4159 0
M  V30 43 H 24.1549 2.1646 63.7201 0
M  V30 44 H 23.8666 9.3273 62.3865 0
M  V30 45 H 25.1196 11.2464 63.2002 0
M  V30 46 H 26.5874 10.708 62.3159 0
M  V30 47 H 26.4121 8.4625 60.9488 0
M  V30 48 H 24.8468 7.583 61.002 0
M  V30 49 H 23.9305 11.6132 61.1006 0
M  V30 50 H 25.4962 12.4925 61.0605 0
M  V30 51 H 25.1748 8.8371 58.8772 0
M  V30 52 H 23.7422 9.402 59.8016 0
M  V30 53 H 26.497 10.7232 59.7154 0
M  V30 54 H 24.996 11.3186 58.9288 0
M  V30 END ATOM
M  V30 BEGIN BOND
M  V30 1 2 1 2
M  V30 2 2 1 3
M  V30 3 1 1 4
M  V30 4 1 1 5
M  V30 5 2 4 6
M  V30 6 1 4 7
M  V30 7 1 5 8
M  V30 8 1 6 9
M  V30 9 2 7 10
M  V30 10 2 9 11
M  V30 11 1 11 12
M  V30 12 1 12 13
M  V30 13 2 13 14
M  V30 14 1 13 15
M  V30 15 1 14 16
M  V30 16 2 15 17
M  V30 17 1 16 18
M  V30 18 2 16 19
M  V30 19 1 17 20
M  V30 20 1 18 21
M  V30 21 1 19 22
M  V30 22 1 20 23
M  V30 23 1 21 24
M  V30 24 1 24 25
M  V30 25 1 24 26
M  V30 26 1 25 27
M  V30 27 1 26 28
M  V30 28 1 27 29
M  V30 29 1 10 11
M  V30 30 1 17 19
M  V30 31 2 22 23
M  V30 32 1 28 29
M  V30 33 1 5 30
M  V30 34 1 5 31
M  V30 35 1 6 32
M  V30 36 1 7 33
M  V30 37 1 8 34
M  V30 38 1 8 35
M  V30 39 1 8 36
M  V30 40 1 9 37
M  V30 41 1 10 38
M  V30 42 1 12 39
M  V30 43 1 20 40
M  V30 44 1 21 41
M  V30 45 1 21 42
M  V30 46 1 23 43
M  V30 47 1 24 44
M  V30 48 1 25 45
M  V30 49 1 25 46
M  V30 50 1 26 47
M  V30 51 1 26 48
M  V30 52 1 27 49
M  V30 53 1 27 50
M  V30 54 1 28 51
M  V30 55 1 28 52
M  V30 56 1 29 53
M  V30 57 1 29 54
M  V30 END BOND
M  V30 END CTAB
M  END
>  <Molecule Name>
SIKZOJIFMBUYSK-PDJAEHLQNA-N

>  <hs_clash>
7.0

>  <hs_total>
147.46433120351224

>  <Total Molweight>
415.516

>  <cLogP>
3.4096

>  <H-Acceptors>
8

>  <H-Donors>
2

>  <Polar Surface Area>
118.24

>  <Non-H Atoms>
29

>  <sp3-Atoms>
11

$$$$
NORJUSOCNUXTJH-SDRQFZCRNA-N
Actelion Java MolfileCreator 2.0

  0  0  0  0  0  0              0 V3000
M  V30 BEGIN CTAB
M  V30 COUNTS 33 34 0 0 0
M  V30 BEGIN ATOM
M  V30 1 Cl 26.2435 9.9286 63.1795 0
M  V30 2 C 26.5528 8.3011 63.6673 0
M  V30 3 C 25.5646 7.2485 63.5728 0
M  V30 4 C 27.8317 8.0185 64.1782 0
M  V30 5 N 24.3788 7.4467 63.1022 0 CHG=1
M  V30 6 C 25.9205 5.9331 64.0231 0
M  V30 7 C 28.1967 6.7136 64.62 0
M  V30 8 O 24.1732 8.2916 62.1055 0
M  V30 9 O 23.3453 6.7741 63.5729 0 CHG=-1
M  V30 10 C 27.2237 5.6524 64.5496 0
M  V30 11 N 29.3887 6.4885 65.0866 0
M  V30 12 C 27.517 4.3696 64.9812 0
M  V30 13 C 30.5965 7.2645 64.6775 0
M  V30 14 O 28.3698 4.1866 65.8287 0
M  V30 15 N 26.831 3.291 64.4787 0
M  V30 16 C 30.8546 8.3811 65.6667 0
M  V30 17 C 31.1633 9.689 65.1976 0
M  V30 18 C 30.7778 8.1314 67.0638 0
M  V30 19 C 31.3985 10.7429 66.1251 0
M  V30 20 C 31.011 9.1833 67.9886 0
M  V30 21 F 31.6814 11.9563 65.6864 0
M  V30 22 C 31.3237 10.4892 67.5222 0
M  V30 23 F 30.9339 8.948 69.278 0
M  V30 24 F 31.5428 11.4694 68.3936 0
M  V30 25 H 28.5594 8.8144 64.238 0
M  V30 26 H 25.1913 5.1384 63.9638 0
M  V30 27 H 29.5026 5.7552 65.7569 0
M  V30 28 H 31.4679 6.5941 64.6496 0
M  V30 29 H 30.4321 7.6943 63.6783 0
M  V30 30 H 27.0358 2.3699 64.8101 0
M  V30 31 H 26.1269 3.4266 63.7818 0
M  V30 32 H 31.2191 9.8819 64.1367 0
M  V30 33 H 30.5419 7.1404 67.4226 0
M  V30 END ATOM
M  V30 BEGIN BOND
M  V30 1 1 1 2
M  V30 2 2 2 3
M  V30 3 1 2 4
M  V30 4 1 3 5
M  V30 5 1 3 6
M  V30 6 2 4 7
M  V30 7 2 5 8
M  V30 8 1 5 9
M  V30 9 2 6 10
M  V30 10 1 7 11
M  V30 11 1 10 12
M  V30 12 1 11 13
M  V30 13 2 12 14
M  V30 14 1 12 15
M  V30 15 1 13 16
M  V30 16 2 16 17
M  V30 17 1 16 18
M  V30 18 1 17 19
M  V30 19 2 18 20
M  V30 20 1 19 21
M  V30 21 2 19 22
M  V30 22 1 20 23
M  V30 23 1 22 24
M  V30 24 1 7 10
M  V30 25 1 20 22
M  V30 26 1 4 25
M  V30 27 1 6 26
M  V30 28 1 11 27
M  V30 29 1 13 28
M  V30 30 1 13 29
M  V30 31 1 15 30
M  V30 32 1 15 31
M  V30 33 1 17 32
M  V30 34 1 18 33
M  V30 END BOND
M  V30 END CTAB
M  END
>  <Molecule Name>
NORJUSOCNUXTJH-SDRQFZCRNA-N

>  <hs_clash>
0.0

>  <hs_total>
147.3861884432529

>  <Total Molweight>
359.690

>  <cLogP>
1.7988

>  <H-Acceptors>
6

>  <H-Donors>
2

>  <Polar Surface Area>
100.94

>  <Non-H Atoms>
24

>  <sp3-Atoms>
2

$$$$
MIDIIMBLQHSLFO-PXPUHDKANA-N
Actelion Java MolfileCreator 2.0

  0  0  0  0  0  0              0 V3000
M  V30 BEGIN CTAB
M  V30 COUNTS 52 55 0 0 0
M  V30 BEGIN ATOM
M  V30 1 S 32.5675 10.8381 65.0034 0
M  V30 2 O 33.4074 11.188 66.1174 0
M  V30 3 O 33.1836 10.5113 63.7521 0
M  V30 4 N 31.6187 9.6245 65.4168 0
M  V30 5 C 31.4428 12.1645 64.7493 0
M  V30 6 C 31.051 8.7487 64.36 0
M  V30 7 C 31.3254 9.3359 66.8522 0
M  V30 8 C 29.6912 8.1871 64.7318 0
M  V30 9 C 30.8705 7.8838 67.0469 0
M  V30 10 C 29.6069 7.5934 66.1884 0
M  V30 11 N 29.341 6.1872 66.3023 0
M  V30 12 C 28.282 5.5432 65.811 0
M  V30 13 N 27.3295 6.3279 65.0924 0
M  V30 14 N 28.1838 4.2528 66.0154 0
M  V30 15 C 26.3134 5.6986 64.6133 0
M  V30 16 C 27.079 3.5962 65.4981 0
M  V30 17 C 26.0701 4.2133 64.7781 0
M  V30 18 C 25.3191 6.4662 63.8438 0
M  V30 19 C 24.8252 3.5336 64.1815 0
M  V30 20 N 25.2571 7.8201 63.5615 0
M  V30 21 C 24.1974 5.8902 63.2029 0
M  V30 22 C 23.9045 4.3849 63.24 0
M  V30 23 N 24.1802 8.1544 62.8305 0
M  V30 24 C 26.2286 8.8351 63.9543 0
M  V30 25 C 23.5326 7.0456 62.6036 0
M  V30 26 C 22.256 7.0029 61.8122 0
M  V30 27 O 21.6342 5.9552 61.6284 0
M  V30 28 N 21.9094 8.2097 61.3325 0
M  V30 29 C 20.755 8.4724 60.5135 0
M  V30 30 H 31.9992 13.0668 64.4557 0
M  V30 31 H 30.7332 11.8963 63.9529 0
M  V30 32 H 30.8911 12.3612 65.6806 0
M  V30 33 H 31.7424 7.9108 64.1887 0
M  V30 34 H 30.9483 9.3348 63.435 0
M  V30 35 H 32.235 9.5092 67.446 0
M  V30 36 H 30.528 10.0104 67.1982 0
M  V30 37 H 29.4434 7.3869 64.0194 0
M  V30 38 H 28.9503 8.996 64.647 0
M  V30 39 H 30.6341 7.7169 68.1083 0
M  V30 40 H 31.6808 7.206 66.7408 0
M  V30 41 H 28.7781 8.1243 66.6802 0
M  V30 42 H 30.0135 5.6384 66.7986 0
M  V30 43 H 26.9993 2.5327 65.668 0
M  V30 44 H 24.5929 2.5028 64.4041 0
M  V30 45 H 23.1139 3.9395 62.6547 0
M  V30 46 H 27.2107 8.5883 63.525 0
M  V30 47 H 25.9026 9.8178 63.5828 0
M  V30 48 H 26.3048 8.8647 65.0512 0
M  V30 49 H 22.4986 8.9843 61.5621 0
M  V30 50 H 20.7166 9.5435 60.2661 0
M  V30 51 H 20.8215 7.8842 59.5867 0
M  V30 52 H 19.8442 8.1905 61.0623 0
M  V30 END ATOM
M  V30 BEGIN BOND
M  V30 1 2 1 2
M  V30 2 2 1 3
M  V30 3 1 1 4
M  V30 4 1 1 5
M  V30 5 1 4 6
M  V30 6 1 4 7
M  V30 7 1 6 8
M  V30 8 1 7 9
M  V30 9 1 8 10
M  V30 10 1 10 11
M  V30 11 1 11 12
M  V30 12 2 12 13
M  V30 13 1 12 14
M  V30 14 1 13 15
M  V30 15 2 14 16
M  V30 16 1 15 17
M  V30 17 2 15 18
M  V30 18 2 17 19
M  V30 19 1 18 20
M  V30 20 1 18 21
M  V30 21 1 19 22
M  V30 22 1 20 23
M  V30 23 1 20 24
M  V30 24 1 21 25
M  V30 25 1 25 26
M  V30 26 2 26 27
M  V30 27 1 26 28
M  V30 28 1 28 29
M  V30 29 1 9 10
M  V30 30 1 16 17
M  V30 31 2 21 22
M  V30 32 2 23 25
M  V30 33 1 5 30
M  V30 34 1 5 31
M  V30 35 1 5 32
M  V30 36 1 6 33
M  V30 37 1 6 34
M  V30 38 1 7 35
M  V30 39 1 7 36
M  V30 40 1 8 37
M  V30 41 1 8 38
M  V30 42 1 9 39
M  V30 43 1 9 40
M  V30 44 1 10 41
M  V30 45 1 11 42
M  V30 46 1 16 43
M  V30 47 1 19 44
M  V30 48 1 22 45
M  V30 49 1 24 46
M  V30 50 1 24 47
M  V30 51 1 24 48
M  V30 52 1 28 49
M  V30 53 1 29 50
M  V30 54 1 29 51
M  V30 55 1 29 52
M  V30 END BOND
M  V30 END CTAB
M  END
>  <Molecule Name>
MIDIIMBLQHSLFO-PXPUHDKANA-N

>  <hs_clash>
2.0

>  <hs_total>
147.36075884775624

>  <Total Molweight>
417.493

>  <cLogP>
0.4215

>  <H-Acceptors>
10

>  <H-Donors>
2

>  <Polar Surface Area>
130.49

>  <Non-H Atoms>
29

>  <sp3-Atoms>
9

$$$$
SMIZFGZXFDGISG-UHFFFAOYNA-N
Actelion Java MolfileCreator 2.0

  0  0  0  0  0  0              0 V3000
M  V30 BEGIN CTAB
M  V30 COUNTS 38 41 0 0 0
M  V30 BEGIN ATOM
M  V30 1 Br 24.8028 3.3532 63.3224 0
M  V30 2 C 26.3769 4.064 63.9836 0
M  V30 3 C 26.9264 5.2789 63.6517 0
M  V30 4 C 27.2644 3.4486 64.8739 0
M  V30 5 N 26.4365 6.239 62.7958 0
M  V30 6 N 28.0875 5.3729 64.3591 0
M  V30 7 N 28.2985 4.2405 65.1312 0
M  V30 8 C 27.1618 7.3316 62.6734 0
M  V30 9 C 28.8766 6.4886 64.2361 0
M  V30 10 C 26.6716 8.375 61.7624 0
M  V30 11 C 28.3878 7.4829 63.3916 0
M  V30 12 N 30.0439 6.5269 64.9733 0
M  V30 13 C 26.1277 8.0264 60.5206 0
M  V30 14 C 26.7682 9.7414 62.0822 0
M  V30 15 C 31.1022 7.4911 64.614 0
M  V30 16 C 25.6598 9.0091 59.6314 0
M  V30 17 C 26.3152 10.7221 61.1951 0
M  V30 18 C 31.2444 8.4971 65.7292 0
M  V30 19 C 25.7494 10.3547 59.9695 0
M  V30 20 C 31.2118 9.8817 65.4991 0
M  V30 21 C 31.4216 8.0768 67.0442 0
M  V30 22 N 31.331 10.8122 66.4543 0
M  V30 23 C 31.5627 9.0293 68.049 0
M  V30 24 C 31.4969 10.3772 67.7077 0
M  V30 25 H 27.1267 2.4637 65.2946 0
M  V30 26 H 28.9526 8.3962 63.2763 0
M  V30 27 H 30.2728 5.7513 65.5613 0
M  V30 28 H 26.0667 6.985 60.2415 0
M  V30 29 H 27.1986 10.0372 63.0275 0
M  V30 30 H 32.0541 6.9588 64.473 0
M  V30 31 H 30.8295 8.0086 63.6826 0
M  V30 32 H 25.23 8.7189 58.6841 0
M  V30 33 H 26.4021 11.7664 61.4563 0
M  V30 34 H 25.3847 11.1113 59.2908 0
M  V30 35 H 31.0813 10.2196 64.4818 0
M  V30 36 H 31.4487 7.0239 67.2821 0
M  V30 37 H 31.7204 8.7285 69.0744 0
M  V30 38 H 31.5844 11.1099 68.4965 0
M  V30 END ATOM
M  V30 BEGIN BOND
M  V30 1 1 1 2
M  V30 2 2 2 3
M  V30 3 1 2 4
M  V30 4 1 3 5
M  V30 5 1 3 6
M  V30 6 2 4 7
M  V30 7 2 5 8
M  V30 8 1 6 9
M  V30 9 1 8 10
M  V30 10 1 8 11
M  V30 11 1 9 12
M  V30 12 2 10 13
M  V30 13 1 10 14
M  V30 14 1 12 15
M  V30 15 1 13 16
M  V30 16 2 14 17
M  V30 17 1 15 18
M  V30 18 2 16 19
M  V30 19 2 18 20
M  V30 20 1 18 21
M  V30 21 1 20 22
M  V30 22 2 21 23
M  V30 23 2 22 24
M  V30 24 1 6 7
M  V30 25 2 9 11
M  V30 26 1 17 19
M  V30 27 1 23 24
M  V30 28 1 4 25
M  V30 29 1 11 26
M  V30 30 1 12 27
M  V30 31 1 13 28
M  V30 32 1 14 29
M  V30 33 1 15 30
M  V30 34 1 15 31
M  V30 35 1 16 32
M  V30 36 1 17 33
M  V30 37 1 19 34
M  V30 38 1 20 35
M  V30 39 1 21 36
M  V30 40 1 23 37
M  V30 41 1 24 38
M  V30 END BOND
M  V30 END CTAB
M  END
>  <Molecule Name>
SMIZFGZXFDGISG-UHFFFAOYNA-N

>  <hs_clash>
0.0

>  <hs_total>
146.535016626623

>  <Total Molweight>
380.248

>  <cLogP>
2.4533

>  <H-Acceptors>
5

>  <H-Donors>
1

>  <Polar Surface Area>
55.11

>  <Non-H Atoms>
24

>  <sp3-Atoms>
1

$$$$
DZHBFQMOLIUZMP-HRNBZBKQNA-N
Actelion Java MolfileCreator 2.0

  0  0  0  0  0  0              0 V3000
M  V30 BEGIN CTAB
M  V30 COUNTS 59 62 0 0 0
M  V30 BEGIN ATOM
M  V30 1 S 25.8569 7.5208 62.2005 0
M  V30 2 C 24.267 7.9792 61.709 0
M  V30 3 C 25.3506 6.3792 63.3797 0
M  V30 4 N 23.3907 7.255 62.4519 0
M  V30 5 N 23.9861 8.9407 60.7115 0
M  V30 6 C 26.2714 5.6206 64.1431 0
M  V30 7 C 23.9406 6.3973 63.3361 0
M  V30 8 C 25.0921 9.3515 59.8557 0
M  V30 9 N 27.3065 6.2563 64.7468 0
M  V30 10 C 26.1766 4.229 64.2343 0
M  V30 11 C 23.0658 5.5362 64.2252 0
M  V30 12 C 28.2356 5.5585 65.4637 0
M  V30 13 C 25.0801 3.5054 63.5722 0
M  V30 14 C 27.1343 3.5335 64.9745 0
M  V30 15 N 28.1512 4.2235 65.5802 0
M  V30 16 N 29.3377 6.2673 66.1177 0
M  V30 17 N 24.225 2.9446 63.0582 0
M  V30 18 C 29.8251 7.5485 65.6212 0
M  V30 19 C 30.6919 8.3131 66.4333 0
M  V30 20 C 29.4481 8.0269 64.3535 0
M  V30 21 C 31.1682 9.5431 65.984 0
M  V30 22 C 29.9224 9.2585 63.8988 0
M  V30 23 N 32.077 10.3244 66.8418 0
M  V30 24 C 30.7958 10.0232 64.7239 0
M  V30 25 C 32.8945 9.9777 67.978 0
M  V30 26 C 31.7075 11.7082 66.6924 0
M  V30 27 C 32.1103 9.7841 69.2476 0
M  V30 28 C 31.8548 12.5402 67.9104 0
M  V30 29 N 31.6234 11.0312 69.764 0
M  V30 30 C 31.0038 12.0888 69.0473 0
M  V30 31 C 31.793 11.242 71.1897 0
M  V30 32 O 31.4063 12.2884 71.7005 0
M  V30 33 C 32.4488 10.177 72.0364 0
M  V30 34 H 23.0789 8.9051 60.2919 0
M  V30 35 H 24.737 10.0977 59.1294 0
M  V30 36 H 25.8891 9.7914 60.4728 0
M  V30 37 H 25.4847 8.4756 59.319 0
M  V30 38 H 22.4301 4.8913 63.6008 0
M  V30 39 H 23.7011 4.9111 64.8699 0
M  V30 40 H 22.4311 6.1813 64.8508 0
M  V30 41 H 27.0737 2.4593 65.0687 0
M  V30 42 H 30.0365 5.6784 66.5238 0
M  V30 43 H 30.9857 7.9439 67.4047 0
M  V30 44 H 28.7898 7.44 63.7303 0
M  V30 45 H 29.6286 9.6292 62.9279 0
M  V30 46 H 31.171 10.9747 64.3765 0
M  V30 47 H 33.426 9.0419 67.7515 0
M  V30 48 H 33.6249 10.7842 68.1403 0
M  V30 49 H 32.3385 12.1451 65.9046 0
M  V30 50 H 30.6529 11.7465 66.381 0
M  V30 51 H 32.7603 9.3156 70.001 0
M  V30 52 H 31.2539 9.125 69.0412 0
M  V30 53 H 32.9069 12.507 68.2291 0
M  V30 54 H 31.5797 13.5756 67.66 0
M  V30 55 H 30.8375 12.9357 69.7297 0
M  V30 56 H 30.0373 11.739 68.6553 0
M  V30 57 H 32.493 10.5149 73.0825 0
M  V30 58 H 31.8626 9.2482 71.976 0
M  V30 59 H 33.4683 9.992 71.6677 0
M  V30 END ATOM
M  V30 BEGIN BOND
M  V30 1 1 1 2
M  V30 2 1 1 3
M  V30 3 2 2 4
M  V30 4 1 2 5
M  V30 5 1 3 6
M  V30 6 2 3 7
M  V30 7 1 5 8
M  V30 8 2 6 9
M  V30 9 1 6 10
M  V30 10 1 7 11
M  V30 11 1 9 12
M  V30 12 1 10 13
M  V30 13 2 10 14
M  V30 14 2 12 15
M  V30 15 1 12 16
M  V30 16 3 13 17
M  V30 17 1 16 18
M  V30 18 2 18 19
M  V30 19 1 18 20
M  V30 20 1 19 21
M  V30 21 2 20 22
M  V30 22 1 21 23
M  V30 23 2 21 24
M  V30 24 1 23 25
M  V30 25 1 23 26
M  V30 26 1 25 27
M  V30 27 1 26 28
M  V30 28 1 27 29
M  V30 29 1 28 30
M  V30 30 1 29 31
M  V30 31 2 31 32
M  V30 32 1 31 33
M  V30 33 1 4 7
M  V30 34 1 14 15
M  V30 35 1 22 24
M  V30 36 1 29 30
M  V30 37 1 5 34
M  V30 38 1 8 35
M  V30 39 1 8 36
M  V30 40 1 8 37
M  V30 41 1 11 38
M  V30 42 1 11 39
M  V30 43 1 11 40
M  V30 44 1 14 41
M  V30 45 1 16 42
M  V30 46 1 19 43
M  V30 47 1 20 44
M  V30 48 1 22 45
M  V30 49 1 24 46
M  V30 50 1 25 47
M  V30 51 1 25 48
M  V30 52 1 26 49
M  V30 53 1 26 50
M  V30 54 1 27 51
M  V30 55 1 27 52
M  V30 56 1 28 53
M  V30 57 1 28 54
M  V30 58 1 30 55
M  V30 59 1 30 56
M  V30 60 1 33 57
M  V30 61 1 33 58
M  V30 62 1 33 59
M  V30 END BOND
M  V30 END CTAB
M  END
>  <Molecule Name>
DZHBFQMOLIUZMP-HRNBZBKQNA-N

>  <hs_clash>
19.0

>  <hs_total>
146.4712576744633

>  <Total Molweight>
462.580

>  <cLogP>
3.6685

>  <H-Acceptors>
9

>  <H-Donors>
2

>  <Polar Surface Area>
138.31

>  <Non-H Atoms>
33

>  <sp3-Atoms>
8

$$$$
DYTKVFHLKPDNRW-HEBYQKOSNA-N
Actelion Java MolfileCreator 2.0

  0  0  0  0  0  0              0 V3000
M  V30 BEGIN CTAB
M  V30 COUNTS 35 37 0 0 0
M  V30 BEGIN ATOM
M  V30 1 S 25.4063 6.9394 62.4365 0
M  V30 2 C 24.1098 6.8281 61.4587 0
M  V30 3 C 24.921 5.5734 63.1802 0
M  V30 4 N 23.3326 5.8004 61.6891 0
M  V30 5 N 23.8267 7.6964 60.474 0
M  V30 6 C 25.8825 4.8913 64.1142 0
M  V30 7 C 23.7814 5.0754 62.6886 0
M  V30 8 N 26.9117 5.6398 64.5359 0
M  V30 9 C 25.8155 3.5432 64.4828 0
M  V30 10 C 23.0127 3.8633 63.0859 0
M  V30 11 C 27.9014 5.1054 65.2684 0
M  V30 12 C 26.8611 3.0145 65.2425 0
M  V30 13 N 27.8793 3.8086 65.6412 0
M  V30 14 N 28.8649 5.897 65.8031 0
M  V30 15 C 29.3172 7.0672 65.3074 0
M  V30 16 C 28.605 7.8395 64.3826 0
M  V30 17 C 30.5269 7.5227 65.7656 0
M  V30 18 C 29.1123 9.0573 63.9309 0
M  V30 19 C 31.0402 8.7398 65.3059 0
M  V30 20 N 28.268 9.9155 63.2724 0 CHG=1
M  V30 21 C 30.3484 9.5165 64.3904 0
M  V30 22 O 27.0453 9.8169 63.4063 0
M  V30 23 O 28.7024 11.0073 62.9371 0 CHG=-1
M  V30 24 H 22.9866 7.4136 60.0111 0
M  V30 25 H 24.5798 7.7128 59.8168 0
M  V30 26 H 24.9778 2.9285 64.1878 0
M  V30 27 H 22.1312 3.7584 62.4365 0
M  V30 28 H 23.652 2.9742 62.9829 0
M  V30 29 H 22.6876 3.962 64.1322 0
M  V30 30 H 26.8558 1.9687 65.5121 0
M  V30 31 H 29.575 5.3765 66.2773 0
M  V30 32 H 27.6519 7.4885 64.0149 0
M  V30 33 H 31.0848 6.9399 66.4837 0
M  V30 34 H 31.9966 9.0819 65.6727 0
M  V30 35 H 30.7549 10.4539 64.0406 0
M  V30 END ATOM
M  V30 BEGIN BOND
M  V30 1 1 1 2
M  V30 2 1 1 3
M  V30 3 2 2 4
M  V30 4 1 2 5
M  V30 5 1 3 6
M  V30 6 2 3 7
M  V30 7 2 6 8
M  V30 8 1 6 9
M  V30 9 1 7 10
M  V30 10 1 8 11
M  V30 11 2 9 12
M  V30 12 2 11 13
M  V30 13 1 11 14
M  V30 14 1 14 15
M  V30 15 2 15 16
M  V30 16 1 15 17
M  V30 17 1 16 18
M  V30 18 2 17 19
M  V30 19 1 18 20
M  V30 20 2 18 21
M  V30 21 2 20 22
M  V30 22 1 20 23
M  V30 23 1 4 7
M  V30 24 1 12 13
M  V30 25 1 19 21
M  V30 26 1 5 24
M  V30 27 1 5 25
M  V30 28 1 9 26
M  V30 29 1 10 27
M  V30 30 1 10 28
M  V30 31 1 10 29
M  V30 32 1 12 30
M  V30 33 1 14 31
M  V30 34 1 16 32
M  V30 35 1 17 33
M  V30 36 1 19 34
M  V30 37 1 21 35
M  V30 END BOND
M  V30 END CTAB
M  END
>  <Molecule Name>
DYTKVFHLKPDNRW-HEBYQKOSNA-N

>  <hs_clash>
0.0

>  <hs_total>
144.67975439161467

>  <Total Molweight>
328.355

>  <cLogP>
2.4099

>  <H-Acceptors>
8

>  <H-Donors>
2

>  <Polar Surface Area>
150.78

>  <Non-H Atoms>
23

>  <sp3-Atoms>
2

$$$$
FWSRAPWAIHFJQW-YHSKDTNENA-N
Actelion Java MolfileCreator 2.0

  0  0  0  0  0  0              0 V3000
M  V30 BEGIN CTAB
M  V30 COUNTS 36 37 0 0 0
M  V30 BEGIN ATOM
M  V30 1 O 23.3911 6.6192 63.424 0
M  V30 2 N 24.3889 7.38 62.9986 0 CHG=1
M  V30 3 O 24.1252 8.3169 62.1238 0 CHG=-1
M  V30 4 C 25.5939 7.1892 63.42 0
M  V30 5 C 26.59 8.2245 63.3513 0
M  V30 6 C 25.9548 5.9223 63.9661 0
M  V30 7 O 26.2822 9.4532 62.8312 0
M  V30 8 C 27.9139 7.9676 63.8249 0
M  V30 9 C 27.2764 5.6586 64.4436 0
M  V30 10 C 26.074 10.5783 63.6517 0
M  V30 11 C 28.2804 6.6879 64.3774 0
M  V30 12 C 27.5436 4.4159 64.9517 0
M  V30 13 N 29.4944 6.4504 64.8147 0
M  V30 14 O 28.4197 4.2489 65.77 0
M  V30 15 N 26.8141 3.3417 64.522 0
M  V30 16 C 30.6907 7.2702 64.4769 0
M  V30 17 C 30.9267 8.3436 65.5205 0
M  V30 18 C 31.0212 8.0363 66.8927 0
M  V30 19 C 31.0555 9.7066 65.1455 0
M  V30 20 N 31.23 8.9914 67.8658 0
M  V30 21 C 31.2704 10.7099 66.1252 0
M  V30 22 C 31.3507 10.3039 67.4662 0
M  V30 23 H 25.2103 5.1418 64.0205 0
M  V30 24 H 28.656 8.7501 63.7674 0
M  V30 25 H 25.8405 11.4517 63.025 0
M  V30 26 H 25.2348 10.3832 64.3356 0
M  V30 27 H 26.984 10.7792 64.2361 0
M  V30 28 H 29.6255 5.6634 65.4176 0
M  V30 29 H 27.0071 2.4295 64.8835 0
M  V30 30 H 26.0878 3.4684 63.8463 0
M  V30 31 H 31.5732 6.6154 64.4287 0
M  V30 32 H 30.5345 7.748 63.4986 0
M  V30 33 H 30.9252 7.0045 67.1969 0
M  V30 34 H 30.9889 9.983 64.1038 0
M  V30 35 H 31.369 11.7493 65.849 0
M  V30 36 H 31.5151 11.0579 68.2221 0
M  V30 END ATOM
M  V30 BEGIN BOND
M  V30 1 2 1 2
M  V30 2 1 2 3
M  V30 3 1 2 4
M  V30 4 2 4 5
M  V30 5 1 4 6
M  V30 6 1 5 7
M  V30 7 1 5 8
M  V30 8 2 6 9
M  V30 9 1 7 10
M  V30 10 2 8 11
M  V30 11 1 9 12
M  V30 12 1 11 13
M  V30 13 2 12 14
M  V30 14 1 12 15
M  V30 15 1 13 16
M  V30 16 1 16 17
M  V30 17 2 17 18
M  V30 18 1 17 19
M  V30 19 1 18 20
M  V30 20 2 19 21
M  V30 21 2 20 22
M  V30 22 1 9 11
M  V30 23 1 21 22
M  V30 24 1 6 23
M  V30 25 1 8 24
M  V30 26 1 10 25
M  V30 27 1 10 26
M  V30 28 1 10 27
M  V30 29 1 13 28
M  V30 30 1 15 29
M  V30 31 1 15 30
M  V30 32 1 16 31
M  V30 33 1 16 32
M  V30 34 1 18 33
M  V30 35 1 19 34
M  V30 36 1 21 35
M  V30 37 1 22 36
M  V30 END BOND
M  V30 END CTAB
M  END
>  <Molecule Name>
FWSRAPWAIHFJQW-YHSKDTNENA-N

>  <hs_clash>
0.0

>  <hs_total>
144.38420468881733

>  <Total Molweight>
302.289

>  <cLogP>
-0.1805

>  <H-Acceptors>
8

>  <H-Donors>
2

>  <Polar Surface Area>
123.06

>  <Non-H Atoms>
22

>  <sp3-Atoms>
4

$$$$
FLLZFUOEZYWLNJ-GPQMBLKYNA-N
Actelion Java MolfileCreator 2.0

  0  0  0  0  0  0              0 V3000
M  V30 BEGIN CTAB
M  V30 COUNTS 42 44 0 0 0
M  V30 BEGIN ATOM
M  V30 1 S 28.265 7.1545 63.9249 0
M  V30 2 C 29.0102 6.1461 65.0941 0
M  V30 3 C 27.3693 5.7859 63.4142 0
M  V30 4 N 28.598 4.8528 65.1096 0
M  V30 5 N 29.9602 6.6105 65.9545 0
M  V30 6 C 27.667 4.6435 64.16 0
M  V30 7 C 26.393 5.8881 62.276 0
M  V30 8 C 30.5919 7.9133 65.7159 0
M  V30 9 N 27.0984 3.4159 63.9711 0
M  V30 10 O 25.749 4.7643 61.9358 0
M  V30 11 C 26.1395 7.0623 61.5714 0
M  V30 12 C 31.6755 7.8455 64.5509 0
M  V30 13 C 31.251 8.4177 67.0369 0
M  V30 14 C 25.9869 8.2969 62.23 0
M  V30 15 C 26.0129 7.0319 60.0416 0
M  V30 16 C 32.3317 9.2308 64.3145 0
M  V30 17 C 31.9336 9.8035 66.826 0
M  V30 18 C 25.7059 9.601 61.4991 0
M  V30 19 C 25.757 8.1707 59.3053 0
M  V30 20 C 32.9581 9.7817 65.646 0
M  V30 21 N 25.5776 10.7144 62.1525 0 CHG=1
M  V30 22 C 25.5913 9.4964 59.9822 0
M  V30 23 O 25.3509 11.763 61.5937 0
M  V30 24 O 25.6908 10.772 63.4835 0 CHG=-1
M  V30 25 H 30.5459 5.9146 66.3694 0
M  V30 26 H 29.8234 8.6414 65.4174 0
M  V30 27 H 27.4834 2.7654 64.6257 0
M  V30 28 H 26.4353 3.4665 63.2244 0
M  V30 29 H 32.4554 7.1215 64.8283 0
M  V30 30 H 31.1841 7.5182 63.6229 0
M  V30 31 H 32.0079 7.6894 67.3623 0
M  V30 32 H 30.4764 8.5127 67.8123 0
M  V30 33 H 26.0735 8.3197 63.3062 0
M  V30 34 H 26.1274 6.0901 59.5259 0
M  V30 35 H 33.1228 9.1311 63.5572 0
M  V30 36 H 31.5676 9.9362 63.956 0
M  V30 37 H 32.4623 10.0824 67.7495 0
M  V30 38 H 31.1573 10.5517 66.6081 0
M  V30 39 H 25.6752 8.1054 58.2307 0
M  V30 40 H 33.8069 9.1414 65.9277 0
M  V30 41 H 33.3151 10.8072 65.47 0
M  V30 42 H 25.3903 10.3801 59.3947 0
M  V30 END ATOM
M  V30 BEGIN BOND
M  V30 1 1 1 2
M  V30 2 1 1 3
M  V30 3 2 2 4
M  V30 4 1 2 5
M  V30 5 2 3 6
M  V30 6 1 3 7
M  V30 7 1 5 8
M  V30 8 1 6 9
M  V30 9 2 7 10
M  V30 10 1 7 11
M  V30 11 1 8 12
M  V30 12 1 8 13
M  V30 13 2 11 14
M  V30 14 1 11 15
M  V30 15 1 12 16
M  V30 16 1 13 17
M  V30 17 1 14 18
M  V30 18 2 15 19
M  V30 19 1 16 20
M  V30 20 1 18 21
M  V30 21 2 18 22
M  V30 22 2 21 23
M  V30 23 1 21 24
M  V30 24 1 4 6
M  V30 25 1 17 20
M  V30 26 1 19 22
M  V30 27 1 5 25
M  V30 28 1 8 26
M  V30 29 1 9 27
M  V30 30 1 9 28
M  V30 31 1 12 29
M  V30 32 1 12 30
M  V30 33 1 13 31
M  V30 34 1 13 32
M  V30 35 1 14 33
M  V30 36 1 15 34
M  V30 37 1 16 35
M  V30 38 1 16 36
M  V30 39 1 17 37
M  V30 40 1 17 38
M  V30 41 1 19 39
M  V30 42 1 20 40
M  V30 43 1 20 41
M  V30 44 1 22 42
M  V30 END BOND
M  V30 END CTAB
M  END
>  <Molecule Name>
FLLZFUOEZYWLNJ-GPQMBLKYNA-N

>  <hs_clash>
0.0

>  <hs_total>
143.44741481400482

>  <Total Molweight>
346.410

>  <cLogP>
2.2819

>  <H-Acceptors>
7

>  <H-Donors>
2

>  <Polar Surface Area>
142.07

>  <Non-H Atoms>
24

>  <sp3-Atoms>
7

$$$$
SNLPJNPAVMWTGI-NNOLMGNNNA-O
Actelion Java MolfileCreator 2.0

  0  0  0  0  0  0              0 V3000
M  V30 BEGIN CTAB
M  V30 COUNTS 31 33 0 0 0
M  V30 BEGIN ATOM
M  V30 1 O 27.8731 7.6691 64.5389 0
M  V30 2 C 28.8128 7.2496 65.2118 0
M  V30 3 N 28.8887 5.9661 65.6399 0 CHG=1
M  V30 4 C 29.8409 8.1666 65.5563 0
M  V30 5 C 27.8922 4.9014 65.3996 0
M  V30 6 C 30.2386 8.3741 66.9394 0
M  V30 7 C 30.5132 8.9337 64.5254 0
M  V30 8 N 28.0182 3.5884 65.8487 0
M  V30 9 C 26.5884 4.8877 64.6896 0
M  V30 10 C 31.27 9.3127 67.2726 0
M  V30 11 C 31.5445 9.8717 64.8657 0
M  V30 12 N 27.0946 2.9089 65.5372 0
M  V30 13 C 26.1764 3.6557 64.8177 0
M  V30 14 C 25.6964 5.7924 63.9441 0
M  V30 15 C 31.9227 10.0622 66.2386 0
M  V30 16 C 24.867 3.4438 64.1619 0
M  V30 17 N 24.6104 4.8146 63.6307 0
M  V30 18 C 23.4919 5.1499 62.9265 0
M  V30 19 O 22.6098 4.3302 62.681 0
M  V30 20 C 23.3166 6.5849 62.422 0
M  V30 21 H 29.6981 5.7149 66.1706 0
M  V30 22 H 29.7516 7.8148 67.7247 0
M  V30 23 H 30.2345 8.7977 63.4911 0
M  V30 24 H 31.5559 9.4559 68.3044 0
M  V30 25 H 32.0375 10.4359 64.088 0
M  V30 26 H 25.7963 6.8399 63.6996 0
M  V30 27 H 32.6984 10.7696 66.4919 0
M  V30 28 H 24.2664 2.5493 64.0887 0
M  V30 29 H 22.3633 6.6698 61.88 0
M  V30 30 H 23.3145 7.2766 63.2776 0
M  V30 31 H 24.1465 6.8398 61.7466 0
M  V30 END ATOM
M  V30 BEGIN BOND
M  V30 1 2 1 2
M  V30 2 1 2 3
M  V30 3 1 2 4
M  V30 4 2 3 5
M  V30 5 2 4 6
M  V30 6 1 4 7
M  V30 7 1 5 8
M  V30 8 1 5 9
M  V30 9 1 6 10
M  V30 10 2 7 11
M  V30 11 2 8 12
M  V30 12 1 9 13
M  V30 13 2 9 14
M  V30 14 2 10 15
M  V30 15 2 13 16
M  V30 16 1 14 17
M  V30 17 1 17 18
M  V30 18 2 18 19
M  V30 19 1 18 20
M  V30 20 1 11 15
M  V30 21 1 12 13
M  V30 22 1 16 17
M  V30 23 1 3 21
M  V30 24 1 6 22
M  V30 25 1 7 23
M  V30 26 1 10 24
M  V30 27 1 11 25
M  V30 28 1 14 26
M  V30 29 1 15 27
M  V30 30 1 16 28
M  V30 31 1 20 29
M  V30 32 1 20 30
M  V30 33 1 20 31
M  V30 END BOND
M  V30 END CTAB
M  END
>  <Molecule Name>
SNLPJNPAVMWTGI-NNOLMGNNNA-O

>  <hs_clash>
0.0

>  <hs_total>
143.3624140524337

>  <Total Molweight>
267.267

>  <cLogP>
1.11

>  <H-Acceptors>
6

>  <H-Donors>
1

>  <Polar Surface Area>
77.76

>  <Non-H Atoms>
20

>  <sp3-Atoms>
1

$$$$
OWXORKPNCHJYOF-JFRKDZMVNA-N
Actelion Java MolfileCreator 2.0

  0  0  0  0  0  0              0 V3000
M  V30 BEGIN CTAB
M  V30 COUNTS 50 53 0 0 0
M  V30 BEGIN ATOM
M  V30 1 S 32.0334 11.2318 64.8677 0
M  V30 2 O 32.9579 11.0422 63.7216 0
M  V30 3 O 32.7876 11.6482 66.079 0
M  V30 4 N 31.0159 12.3081 64.5034 0
M  V30 5 C 31.2877 9.8406 65.1754 0
M  V30 6 C 30.5875 9.1782 64.1615 0
M  V30 7 C 31.3317 9.2774 66.4563 0
M  V30 8 C 29.9459 7.9694 64.4281 0
M  V30 9 C 30.6868 8.0692 66.7169 0
M  V30 10 C 29.9856 7.4101 65.7087 0
M  V30 11 N 29.3775 6.2307 66.0038 0
M  V30 12 C 28.2547 5.7461 65.4125 0
M  V30 13 N 27.4288 6.5673 64.6906 0
M  V30 14 N 27.9731 4.4248 65.5722 0
M  V30 15 C 26.2905 6.1353 64.0839 0
M  V30 16 C 26.8496 3.9496 64.9868 0
M  V30 17 O 25.4682 6.9534 63.3543 0
M  V30 18 C 25.95 4.8033 64.2085 0
M  V30 19 N 26.3449 2.7088 64.9805 0
M  V30 20 C 25.4697 8.3743 63.4716 0
M  V30 21 N 24.9543 4.0088 63.7785 0
M  V30 22 C 25.1994 2.7607 64.249 0
M  V30 23 C 25.5597 9.0152 62.0889 0
M  V30 24 C 24.6845 10.2674 62.0379 0
M  V30 25 C 25.1123 8.0396 60.9971 0
M  V30 26 C 24.8103 10.9548 60.675 0
M  V30 27 C 25.2286 8.6663 59.6067 0
M  V30 28 C 24.5146 10.0166 59.4986 0
M  V30 29 H 31.4344 12.9639 63.8751 0
M  V30 30 H 30.2244 11.8842 64.0634 0
M  V30 31 H 30.5438 9.6044 63.1701 0
M  V30 32 H 31.8681 9.7816 67.2469 0
M  V30 33 H 29.4132 7.4608 63.6383 0
M  V30 34 H 30.7304 7.6409 67.7074 0
M  V30 35 H 29.9243 5.5699 66.5176 0
M  V30 36 H 26.7341 1.9029 65.426 0
M  V30 37 H 26.3337 8.6886 64.0752 0
M  V30 38 H 24.541 8.6997 63.9635 0
M  V30 39 H 24.5609 1.9094 64.0651 0
M  V30 40 H 26.6036 9.3046 61.8992 0
M  V30 41 H 23.635 9.9828 62.2043 0
M  V30 42 H 25.0045 10.965 62.826 0
M  V30 43 H 25.7455 7.1412 61.039 0
M  V30 44 H 24.0641 7.758 61.1761 0
M  V30 45 H 24.1006 11.7947 60.6397 0
M  V30 46 H 25.8361 11.337 60.569 0
M  V30 47 H 24.7867 7.9764 58.8731 0
M  V30 48 H 26.2941 8.8136 59.3766 0
M  V30 49 H 23.4301 9.8364 59.4599 0
M  V30 50 H 24.8378 10.5093 58.5697 0
M  V30 END ATOM
M  V30 BEGIN BOND
M  V30 1 2 1 2
M  V30 2 2 1 3
M  V30 3 1 1 4
M  V30 4 1 1 5
M  V30 5 2 5 6
M  V30 6 1 5 7
M  V30 7 1 6 8
M  V30 8 2 7 9
M  V30 9 2 8 10
M  V30 10 1 10 11
M  V30 11 1 11 12
M  V30 12 2 12 13
M  V30 13 1 12 14
M  V30 14 1 13 15
M  V30 15 2 14 16
M  V30 16 1 15 17
M  V30 17 2 15 18
M  V30 18 1 16 19
M  V30 19 1 17 20
M  V30 20 1 18 21
M  V30 21 1 19 22
M  V30 22 1 20 23
M  V30 23 1 23 24
M  V30 24 1 23 25
M  V30 25 1 24 26
M  V30 26 1 25 27
M  V30 27 1 26 28
M  V30 28 1 9 10
M  V30 29 1 16 18
M  V30 30 2 21 22
M  V30 31 1 27 28
M  V30 32 1 4 29
M  V30 33 1 4 30
M  V30 34 1 6 31
M  V30 35 1 7 32
M  V30 36 1 8 33
M  V30 37 1 9 34
M  V30 38 1 11 35
M  V30 39 1 19 36
M  V30 40 1 20 37
M  V30 41 1 20 38
M  V30 42 1 22 39
M  V30 43 1 23 40
M  V30 44 1 24 41
M  V30 45 1 24 42
M  V30 46 1 25 43
M  V30 47 1 25 44
M  V30 48 1 26 45
M  V30 49 1 26 46
M  V30 50 1 27 47
M  V30 51 1 27 48
M  V30 52 1 28 49
M  V30 53 1 28 50
M  V30 END BOND
M  V30 END CTAB
M  END
>  <Molecule Name>
OWXORKPNCHJYOF-JFRKDZMVNA-N

>  <hs_clash>
1.0

>  <hs_total>
143.02888160740764

>  <Total Molweight>
402.478

>  <cLogP>
2.6746

>  <H-Acceptors>
9

>  <H-Donors>
3

>  <Polar Surface Area>
144.26

>  <Non-H Atoms>
28

>  <sp3-Atoms>
9

$$$$
PVTKDXZNSUHUMO-HXTKINSTNA-N
Actelion Java MolfileCreator 2.0

  0  0  0  0  0  0              0 V3000
M  V30 BEGIN CTAB
M  V30 COUNTS 61 64 0 0 0
M  V30 BEGIN ATOM
M  V30 1 O 31.7969 15.7223 66.055 0
M  V30 2 C 31.5383 15.1931 64.9799 0
M  V30 3 N 31.8666 13.8957 64.7767 0
M  V30 4 C 30.8713 15.9932 63.887 0
M  V30 5 C 31.6165 13.2163 63.4868 0
M  V30 6 C 32.4981 13.1146 65.8518 0
M  V30 7 O 30.6783 17.3646 64.2756 0
M  V30 8 C 30.8117 11.9464 63.7501 0
M  V30 9 C 31.6187 11.8618 66.0453 0
M  V30 10 N 31.518 11.1517 64.7628 0
M  V30 11 C 30.9438 9.8708 64.941 0
M  V30 12 C 29.9428 9.4032 64.0951 0
M  V30 13 C 31.4204 9.0418 65.9499 0
M  V30 14 C 29.3925 8.1295 64.2363 0
M  V30 15 C 30.874 7.7721 66.087 0
M  V30 16 C 29.8562 7.3055 65.2622 0
M  V30 17 N 29.3986 6.016 65.525 0
M  V30 18 C 28.3285 5.3086 64.991 0
M  V30 19 N 27.3215 5.8544 64.2737 0
M  V30 20 N 28.343 4.0094 65.2735 0
M  V30 21 C 26.3317 5.055 63.8066 0
M  V30 22 C 27.3995 3.1805 64.8243 0
M  V30 23 C 25.2311 5.6297 63.0107 0
M  V30 24 C 26.3509 3.6637 64.0592 0
M  V30 25 N 25.2903 6.7856 62.2455 0
M  V30 26 C 23.9662 5.1275 62.9111 0
M  V30 27 C 24.0661 6.9327 61.7042 0
M  V30 28 C 26.4621 7.6453 62.0368 0
M  V30 29 N 23.2862 5.9423 62.0944 0
M  V30 30 C 23.6767 8.0639 60.7813 0
M  V30 31 C 26.883 7.6187 60.5638 0
M  V30 32 C 26.1945 9.0822 62.4805 0
M  V30 33 H 31.5027 15.9632 62.9869 0
M  V30 34 H 29.8922 15.5447 63.6635 0
M  V30 35 H 32.5748 12.9558 63.0142 0
M  V30 36 H 31.0485 13.8831 62.8213 0
M  V30 37 H 33.5185 12.8235 65.5628 0
M  V30 38 H 32.5337 13.7029 66.7806 0
M  V30 39 H 30.3259 17.3979 65.1575 0
M  V30 40 H 30.7187 11.366 62.8206 0
M  V30 41 H 29.8093 12.2112 64.1186 0
M  V30 42 H 32.0749 11.2025 66.7985 0
M  V30 43 H 30.6151 12.1625 66.3813 0
M  V30 44 H 29.5813 10.0459 63.3061 0
M  V30 45 H 32.2015 9.3791 66.6154 0
M  V30 46 H 28.6206 7.787 63.563 0
M  V30 47 H 31.2533 7.1236 66.8626 0
M  V30 48 H 30.1546 5.405 65.7597 0
M  V30 49 H 27.4533 2.1276 65.0582 0
M  V30 50 H 25.5838 3.0086 63.6735 0
M  V30 51 H 23.5857 4.242 63.3984 0
M  V30 52 H 27.2981 7.2549 62.6354 0
M  V30 53 H 24.3153 8.0436 59.8862 0
M  V30 54 H 22.624 7.9483 60.4837 0
M  V30 55 H 23.8068 9.0239 61.3028 0
M  V30 56 H 27.0727 6.5804 60.2553 0
M  V30 57 H 26.079 8.0441 59.9452 0
M  V30 58 H 27.7992 8.2134 60.4339 0
M  V30 59 H 25.8932 9.0899 63.5386 0
M  V30 60 H 27.1088 9.6807 62.3556 0
M  V30 61 H 25.3886 9.5114 61.8669 0
M  V30 END ATOM
M  V30 BEGIN BOND
M  V30 1 2 1 2
M  V30 2 1 2 3
M  V30 3 1 2 4
M  V30 4 1 3 5
M  V30 5 1 3 6
M  V30 6 1 4 7
M  V30 7 1 5 8
M  V30 8 1 6 9
M  V30 9 1 8 10
M  V30 10 1 10 11
M  V30 11 2 11 12
M  V30 12 1 11 13
M  V30 13 1 12 14
M  V30 14 2 13 15
M  V30 15 2 14 16
M  V30 16 1 16 17
M  V30 17 1 17 18
M  V30 18 2 18 19
M  V30 19 1 18 20
M  V30 20 1 19 21
M  V30 21 2 20 22
M  V30 22 1 21 23
M  V30 23 2 21 24
M  V30 24 1 23 25
M  V30 25 2 23 26
M  V30 26 1 25 27
M  V30 27 1 25 28
M  V30 28 1 26 29
M  V30 29 1 27 30
M  V30 30 1 28 31
M  V30 31 1 28 32
M  V30 32 1 9 10
M  V30 33 1 15 16
M  V30 34 1 22 24
M  V30 35 2 27 29
M  V30 36 1 4 33
M  V30 37 1 4 34
M  V30 38 1 5 35
M  V30 39 1 5 36
M  V30 40 1 6 37
M  V30 41 1 6 38
M  V30 42 1 7 39
M  V30 43 1 8 40
M  V30 44 1 8 41
M  V30 45 1 9 42
M  V30 46 1 9 43
M  V30 47 1 12 44
M  V30 48 1 13 45
M  V30 49 1 14 46
M  V30 50 1 15 47
M  V30 51 1 17 48
M  V30 52 1 22 49
M  V30 53 1 24 50
M  V30 54 1 26 51
M  V30 55 1 28 52
M  V30 56 1 30 53
M  V30 57 1 30 54
M  V30 58 1 30 55
M  V30 59 1 31 56
M  V30 60 1 31 57
M  V30 61 1 31 58
M  V30 62 1 32 59
M  V30 63 1 32 60
M  V30 64 1 32 61
M  V30 END BOND
M  V30 END CTAB
M  END
>  <Molecule Name>
PVTKDXZNSUHUMO-HXTKINSTNA-N

>  <hs_clash>
22.0

>  <hs_total>
142.8373689206447

>  <Total Molweight>
435.530

>  <cLogP>
2.0157

>  <H-Acceptors>
9

>  <H-Donors>
2

>  <Polar Surface Area>
99.41

>  <Non-H Atoms>
32

>  <sp3-Atoms>
10

$$$$
BYMFSZLMPVZBJV-LNNLXFCONA-N
Actelion Java MolfileCreator 2.0

  0  0  0  0  0  0              0 V3000
M  V30 BEGIN CTAB
M  V30 COUNTS 57 61 0 0 0
M  V30 BEGIN ATOM
M  V30 1 O 27.1521 12.6088 61.7127 0
M  V30 2 C 28.3177 11.7965 61.8818 0
M  V30 3 C 26.6922 12.6721 60.3588 0
M  V30 4 C 29.2241 12.3348 63.0008 0
M  V30 5 C 27.9182 10.3503 62.2115 0
M  V30 6 C 30.5027 11.4781 63.0739 0
M  V30 7 C 29.1867 9.5061 62.0807 0
M  V30 8 N 30.2334 10.017 62.998 0
M  V30 9 C 30.5737 9.2383 64.0996 0
M  V30 10 N 29.9434 8.082 64.3579 0
M  V30 11 N 31.5513 9.6807 64.8865 0
M  V30 12 C 30.2955 7.3342 65.4184 0
M  V30 13 C 31.9524 8.9888 65.9557 0
M  V30 14 N 29.6978 6.1193 65.7516 0
M  V30 15 C 31.3261 7.7843 66.2539 0
M  V30 16 C 28.6187 5.4958 65.1133 0
M  V30 17 N 28.4042 4.2136 65.4149 0
M  V30 18 C 27.7927 6.1661 64.207 0
M  V30 19 C 27.4082 3.5212 64.8694 0
M  V30 20 C 26.7414 5.489 63.6095 0
M  V30 21 C 26.5382 4.1295 63.9552 0
M  V30 22 N 25.7671 5.8377 62.7013 0
M  V30 23 C 25.3763 3.6911 63.1761 0
M  V30 24 C 24.9703 4.7408 62.4498 0
M  V30 25 C 25.6587 7.1623 62.0721 0
M  V30 26 C 26.381 7.1042 60.6983 0
M  V30 27 C 24.2311 7.5632 61.6746 0
M  V30 28 C 25.6356 8.1031 59.7679 0
M  V30 29 C 24.4777 8.6801 60.6336 0
M  V30 30 H 28.8971 11.7868 60.9473 0
M  V30 31 H 25.7978 13.3108 60.3043 0
M  V30 32 H 27.4833 13.0947 59.7224 0
M  V30 33 H 26.4414 11.66 60.0094 0
M  V30 34 H 28.6917 12.2838 63.9622 0
M  V30 35 H 29.493 13.3795 62.7857 0
M  V30 36 H 27.1528 9.9974 61.5048 0
M  V30 37 H 27.5258 10.2892 63.2375 0
M  V30 38 H 31.1585 11.757 62.2362 0
M  V30 39 H 31.0122 11.691 64.0253 0
M  V30 40 H 28.9566 8.4615 62.3364 0
M  V30 41 H 29.5532 9.5582 61.045 0
M  V30 42 H 32.7516 9.3601 66.5801 0
M  V30 43 H 30.3505 5.4628 66.1295 0
M  V30 44 H 31.6285 7.2058 67.1142 0
M  V30 45 H 27.9724 7.2053 63.9739 0
M  V30 46 H 27.2689 2.4833 65.1333 0
M  V30 47 H 24.9313 2.7072 63.186 0
M  V30 48 H 24.1361 4.7297 61.7637 0
M  V30 49 H 26.1114 7.9412 62.7033 0
M  V30 50 H 27.4342 7.4013 60.8097 0
M  V30 51 H 26.3289 6.0866 60.284 0
M  V30 52 H 23.6894 6.7161 61.2286 0
M  V30 53 H 23.6686 7.9434 62.5403 0
M  V30 54 H 26.3127 8.9072 59.4435 0
M  V30 55 H 25.235 7.5828 58.8854 0
M  V30 56 H 24.7798 9.6178 61.1237 0
M  V30 57 H 23.5792 8.8584 60.0245 0
M  V30 END ATOM
M  V30 BEGIN BOND
M  V30 1 1 1 2
M  V30 2 1 1 3
M  V30 3 1 2 4
M  V30 4 1 2 5
M  V30 5 1 4 6
M  V30 6 1 5 7
M  V30 7 1 6 8
M  V30 8 1 8 9
M  V30 9 2 9 10
M  V30 10 1 9 11
M  V30 11 1 10 12
M  V30 12 2 11 13
M  V30 13 1 12 14
M  V30 14 2 12 15
M  V30 15 1 14 16
M  V30 16 2 16 17
M  V30 17 1 16 18
M  V30 18 1 17 19
M  V30 19 2 18 20
M  V30 20 2 19 21
M  V30 21 1 20 22
M  V30 22 1 21 23
M  V30 23 1 22 24
M  V30 24 1 22 25
M  V30 25 1 25 26
M  V30 26 1 25 27
M  V30 27 1 26 28
M  V30 28 1 27 29
M  V30 29 1 7 8
M  V30 30 1 13 15
M  V30 31 1 20 21
M  V30 32 2 23 24
M  V30 33 1 28 29
M  V30 34 1 2 30
M  V30 35 1 3 31
M  V30 36 1 3 32
M  V30 37 1 3 33
M  V30 38 1 4 34
M  V30 39 1 4 35
M  V30 40 1 5 36
M  V30 41 1 5 37
M  V30 42 1 6 38
M  V30 43 1 6 39
M  V30 44 1 7 40
M  V30 45 1 7 41
M  V30 46 1 13 42
M  V30 47 1 14 43
M  V30 48 1 15 44
M  V30 49 1 18 45
M  V30 50 1 19 46
M  V30 51 1 23 47
M  V30 52 1 24 48
M  V30 53 1 25 49
M  V30 54 1 26 50
M  V30 55 1 26 51
M  V30 56 1 27 52
M  V30 57 1 27 53
M  V30 58 1 28 54
M  V30 59 1 28 55
M  V30 60 1 29 56
M  V30 61 1 29 57
M  V30 END BOND
M  V30 END CTAB
M  END
>  <Molecule Name>
BYMFSZLMPVZBJV-LNNLXFCONA-N

>  <hs_clash>
0.0

>  <hs_total>
142.0121174332588

>  <Total Molweight>
392.505

>  <cLogP>
3.781

>  <H-Acceptors>
7

>  <H-Donors>
1

>  <Polar Surface Area>
68.1

>  <Non-H Atoms>
29

>  <sp3-Atoms>
12

$$$$
WQZVTNFUNLTGDW-PKSOQXRJNA-N
Actelion Java MolfileCreator 2.0

  0  0  0  0  0  0              0 V3000
M  V30 BEGIN CTAB
M  V30 COUNTS 50 52 0 0 0
M  V30 BEGIN ATOM
M  V30 1 S 32.7649 10.9014 64.7672 0
M  V30 2 O 33.9093 10.5459 63.8629 0
M  V30 3 O 33.3482 11.2676 66.1119 0
M  V30 4 N 31.9162 12.161 64.1445 0
M  V30 5 C 31.7755 9.4755 64.9713 0
M  V30 6 C 32.7689 13.3623 64.0774 0
M  V30 7 C 30.8521 9.0531 64.0115 0
M  V30 8 C 31.9773 8.7438 66.1329 0
M  V30 9 C 32.6547 14.2023 65.3585 0
M  V30 10 C 30.1031 7.8917 64.2126 0
M  V30 11 C 31.2411 7.5872 66.3168 0
M  V30 12 O 33.8039 14.0746 66.2347 0
M  V30 13 C 30.306 7.1671 65.379 0
M  V30 14 C 34.1555 15.3542 66.7549 0
M  V30 15 N 29.7036 6.0251 65.6718 0
M  V30 16 C 28.7002 5.4648 65.0152 0
M  V30 17 N 27.8947 6.141 64.1703 0
M  V30 18 N 28.4931 4.1745 65.3112 0
M  V30 19 C 26.8849 5.4784 63.5769 0
M  V30 20 C 27.5077 3.4936 64.7549 0
M  V30 21 C 26.0759 6.1094 62.6366 0
M  V30 22 C 26.6739 4.1319 63.8516 0
M  V30 23 S 26.6224 7.2909 61.5482 0
M  V30 24 C 24.7348 5.8335 62.3468 0
M  V30 25 C 25.1096 7.4243 60.7782 0
M  V30 26 N 24.2378 6.5766 61.3447 0
M  V30 27 C 23.899 4.8102 63.1169 0
M  V30 28 O 24.8543 8.207 59.8647 0
M  V30 29 C 22.8303 6.4798 60.9004 0
M  V30 30 H 31.2342 11.9961 63.4318 0
M  V30 31 H 33.8157 13.0512 63.9457 0
M  V30 32 H 32.4575 13.9751 63.2187 0
M  V30 33 H 30.7168 9.6289 63.1078 0
M  V30 34 H 32.6914 9.0692 66.8751 0
M  V30 35 H 32.5485 15.2596 65.0742 0
M  V30 36 H 31.7586 13.8792 65.9089 0
M  V30 37 H 29.3825 7.5652 63.4776 0
M  V30 38 H 31.3961 6.9984 67.2087 0
M  V30 39 H 35.0268 15.254 67.4187 0
M  V30 40 H 34.403 16.032 65.9248 0
M  V30 41 H 33.3075 15.7647 67.3231 0
M  V30 42 H 30.3233 5.3538 66.0781 0
M  V30 43 H 27.3541 2.4532 65.0008 0
M  V30 44 H 25.8727 3.5926 63.3685 0
M  V30 45 H 22.8739 4.7984 62.7183 0
M  V30 46 H 24.3474 3.8122 63.0051 0
M  V30 47 H 23.8747 5.084 64.1823 0
M  V30 48 H 22.1626 6.7323 61.7375 0
M  V30 49 H 22.6587 7.1813 60.0706 0
M  V30 50 H 22.6223 5.454 60.5625 0
M  V30 END ATOM
M  V30 BEGIN BOND
M  V30 1 2 1 2
M  V30 2 2 1 3
M  V30 3 1 1 4
M  V30 4 1 1 5
M  V30 5 1 4 6
M  V30 6 2 5 7
M  V30 7 1 5 8
M  V30 8 1 6 9
M  V30 9 1 7 10
M  V30 10 2 8 11
M  V30 11 1 9 12
M  V30 12 2 10 13
M  V30 13 1 12 14
M  V30 14 1 13 15
M  V30 15 1 15 16
M  V30 16 2 16 17
M  V30 17 1 16 18
M  V30 18 1 17 19
M  V30 19 2 18 20
M  V30 20 1 19 21
M  V30 21 2 19 22
M  V30 22 1 21 23
M  V30 23 2 21 24
M  V30 24 1 23 25
M  V30 25 1 24 26
M  V30 26 1 24 27
M  V30 27 2 25 28
M  V30 28 1 26 29
M  V30 29 1 11 13
M  V30 30 1 20 22
M  V30 31 1 25 26
M  V30 32 1 4 30
M  V30 33 1 6 31
M  V30 34 1 6 32
M  V30 35 1 7 33
M  V30 36 1 8 34
M  V30 37 1 9 35
M  V30 38 1 9 36
M  V30 39 1 10 37
M  V30 40 1 11 38
M  V30 41 1 14 39
M  V30 42 1 14 40
M  V30 43 1 14 41
M  V30 44 1 15 42
M  V30 45 1 20 43
M  V30 46 1 22 44
M  V30 47 1 27 45
M  V30 48 1 27 46
M  V30 49 1 27 47
M  V30 50 1 29 48
M  V30 51 1 29 49
M  V30 52 1 29 50
M  V30 END BOND
M  V30 END CTAB
M  END
>  <Molecule Name>
WQZVTNFUNLTGDW-PKSOQXRJNA-N

>  <hs_clash>
11.0

>  <hs_total>
141.89213714915064

>  <Total Molweight>
435.528

>  <cLogP>
2.1915

>  <H-Acceptors>
9

>  <H-Donors>
2

>  <Polar Surface Area>
147.2

>  <Non-H Atoms>
29

>  <sp3-Atoms>
8

$$$$
JNHRQRICVGMRKT-KHCWMJRFNA-N
Actelion Java MolfileCreator 2.0

  0  0  0  0  0  0              0 V3000
M  V30 BEGIN CTAB
M  V30 COUNTS 33 34 0 0 0
M  V30 BEGIN ATOM
M  V30 1 Cl 26.1349 9.7665 63.0681 0
M  V30 2 C 26.4372 8.1666 63.5581 0
M  V30 3 C 25.4234 7.1367 63.5569 0
M  V30 4 C 27.7438 7.8804 63.9875 0
M  V30 5 N 24.1979 7.3409 63.158 0 CHG=1
M  V30 6 C 25.7941 5.8386 64.0175 0
M  V30 7 C 28.1214 6.5862 64.44 0
M  V30 8 O 23.319 6.3736 63.1923 0
M  V30 9 O 23.7931 8.5007 62.7051 0 CHG=-1
M  V30 10 C 27.1289 5.5515 64.4629 0
M  V30 11 N 29.3475 6.3461 64.8359 0
M  V30 12 C 27.4156 4.2837 64.9061 0
M  V30 13 C 30.53 7.1692 64.4494 0
M  V30 14 O 28.2812 4.1034 65.7421 0
M  V30 15 N 26.7103 3.2141 64.4266 0
M  V30 16 C 30.7297 8.283 65.442 0
M  V30 17 C 30.7673 9.6231 65.0467 0
M  V30 18 C 30.8805 8.0686 66.8176 0
M  V30 19 N 30.9341 10.6661 65.9045 0
M  V30 20 N 31.0541 9.0804 67.7299 0
M  V30 21 C 31.0708 10.3447 67.2191 0
M  V30 22 N 31.2268 11.3049 68.0333 0
M  V30 23 H 28.4837 8.6672 63.9737 0
M  V30 24 H 25.0531 5.053 64.0318 0
M  V30 25 H 29.4573 5.7384 65.6224 0
M  V30 26 H 31.4265 6.5323 64.4318 0
M  V30 27 H 30.3643 7.5976 63.45 0
M  V30 28 H 26.9082 2.2936 64.7631 0
M  V30 29 H 25.997 3.353 63.7399 0
M  V30 30 H 30.6571 9.8448 63.9955 0
M  V30 31 H 30.859 7.052 67.1811 0
M  V30 32 H 31.315 10.9443 68.9618 0
M  V30 33 H 30.4349 11.9141 67.9869 0
M  V30 END ATOM
M  V30 BEGIN BOND
M  V30 1 1 1 2
M  V30 2 2 2 3
M  V30 3 1 2 4
M  V30 4 1 3 5
M  V30 5 1 3 6
M  V30 6 2 4 7
M  V30 7 2 5 8
M  V30 8 1 5 9
M  V30 9 2 6 10
M  V30 10 1 7 11
M  V30 11 1 10 12
M  V30 12 1 11 13
M  V30 13 2 12 14
M  V30 14 1 12 15
M  V30 15 1 13 16
M  V30 16 2 16 17
M  V30 17 1 16 18
M  V30 18 1 17 19
M  V30 19 2 18 20
M  V30 20 2 19 21
M  V30 21 1 21 22
M  V30 22 1 7 10
M  V30 23 1 20 21
M  V30 24 1 4 23
M  V30 25 1 6 24
M  V30 26 1 11 25
M  V30 27 1 13 26
M  V30 28 1 13 27
M  V30 29 1 15 28
M  V30 30 1 15 29
M  V30 31 1 17 30
M  V30 32 1 18 31
M  V30 33 1 22 32
M  V30 34 1 22 33
M  V30 END BOND
M  V30 END CTAB
M  END
>  <Molecule Name>
JNHRQRICVGMRKT-KHCWMJRFNA-N

>  <hs_clash>
0.0

>  <hs_total>
141.81216569979165

>  <Total Molweight>
322.711

>  <cLogP>
-0.3746

>  <H-Acceptors>
9

>  <H-Donors>
3

>  <Polar Surface Area>
152.74

>  <Non-H Atoms>
22

>  <sp3-Atoms>
2

$$$$
WQZOOPQQADNJEG-WYUMXYHSNA-N
Actelion Java MolfileCreator 2.0

  0  0  0  0  0  0              0 V3000
M  V30 BEGIN CTAB
M  V30 COUNTS 33 34 0 0 0
M  V30 BEGIN ATOM
M  V30 1 S 27.0765 6.1143 63.9951 0
M  V30 2 C 28.3387 5.35 64.9348 0
M  V30 3 C 26.2603 4.657 64.1884 0
M  V30 4 N 28.14 4.0238 65.2566 0
M  V30 5 N 29.6238 6.0895 65.1849 0
M  V30 6 C 26.9546 3.7267 64.863 0
M  V30 7 C 24.8821 4.3889 63.6161 0
M  V30 8 C 29.8583 7.3522 64.8519 0
M  V30 9 C 23.9143 5.56 63.7422 0
M  V30 10 C 25.0256 3.9116 62.1559 0
M  V30 11 O 29.0573 8.0185 64.1996 0
M  V30 12 C 31.2158 7.9157 65.2071 0
M  V30 13 C 31.2182 8.8718 66.3538 0
M  V30 14 C 31.4449 8.3978 67.6233 0
M  V30 15 C 30.9945 10.2213 66.1466 0
M  V30 16 N 31.4256 9.2388 68.6579 0
M  V30 17 C 30.983 11.0729 67.251 0
M  V30 18 C 31.1924 10.5465 68.4981 0
M  V30 19 H 30.3611 5.5893 65.6387 0
M  V30 20 H 26.528 2.7563 65.069 0
M  V30 21 H 24.4515 3.5516 64.1848 0
M  V30 22 H 22.9437 5.2831 63.305 0
M  V30 23 H 23.7791 5.8112 64.8045 0
M  V30 24 H 24.3215 6.4312 63.2083 0
M  V30 25 H 24.029 3.7152 61.7342 0
M  V30 26 H 25.5273 4.6907 61.5635 0
M  V30 27 H 25.6235 2.9887 62.1294 0
M  V30 28 H 31.8786 7.0755 65.4615 0
M  V30 29 H 31.6102 8.4398 64.3243 0
M  V30 30 H 31.6381 7.3474 67.7829 0
M  V30 31 H 30.832 10.6072 65.1512 0
M  V30 32 H 30.8116 12.1318 67.1251 0
M  V30 33 H 31.1693 11.1945 69.3619 0
M  V30 END ATOM
M  V30 BEGIN BOND
M  V30 1 1 1 2
M  V30 2 1 1 3
M  V30 3 2 2 4
M  V30 4 1 2 5
M  V30 5 2 3 6
M  V30 6 1 3 7
M  V30 7 1 5 8
M  V30 8 1 7 9
M  V30 9 1 7 10
M  V30 10 2 8 11
M  V30 11 1 8 12
M  V30 12 1 12 13
M  V30 13 2 13 14
M  V30 14 1 13 15
M  V30 15 1 14 16
M  V30 16 2 15 17
M  V30 17 2 16 18
M  V30 18 1 4 6
M  V30 19 1 17 18
M  V30 20 1 5 19
M  V30 21 1 6 20
M  V30 22 1 7 21
M  V30 23 1 9 22
M  V30 24 1 9 23
M  V30 25 1 9 24
M  V30 26 1 10 25
M  V30 27 1 10 26
M  V30 28 1 10 27
M  V30 29 1 12 28
M  V30 30 1 12 29
M  V30 31 1 14 30
M  V30 32 1 15 31
M  V30 33 1 17 32
M  V30 34 1 18 33
M  V30 END BOND
M  V30 END CTAB
M  END
>  <Molecule Name>
WQZOOPQQADNJEG-WYUMXYHSNA-N

>  <hs_clash>
0.0

>  <hs_total>
140.48274607508608

>  <Total Molweight>
261.348

>  <cLogP>
2.6988

>  <H-Acceptors>
4

>  <H-Donors>
1

>  <Polar Surface Area>
83.12

>  <Non-H Atoms>
18

>  <sp3-Atoms>
4

$$$$
UHCMUGYUWQCODZ-GIEZSIAQNA-O
Actelion Java MolfileCreator 2.0

  0  0  0  0  0  0              0 V3000
M  V30 BEGIN CTAB
M  V30 COUNTS 62 66 0 0 0
M  V30 BEGIN ATOM
M  V30 1 F 25.2121 3.3841 63.5337 0
M  V30 2 C 26.2554 4.1058 63.995 0
M  V30 3 C 26.3856 5.4801 63.7217 0
M  V30 4 C 27.2327 3.4845 64.7545 0
M  V30 5 N 27.447 6.1114 64.2327 0
M  V30 6 C 25.3562 6.211 62.9179 0
M  V30 7 N 28.2583 4.1861 65.2082 0
M  V30 8 C 28.3721 5.4782 64.9485 0
M  V30 9 C 25.5173 7.3383 62.1434 0
M  V30 10 C 23.9936 5.8477 62.8212 0
M  V30 11 N 29.4893 6.136 65.4669 0
M  V30 12 N 24.3145 7.6429 61.6046 0
M  V30 13 C 26.7946 8.1166 61.9133 0 CFG=2
M  V30 14 N 23.3843 6.6963 62.0417 0
M  V30 15 C 29.8038 7.4832 65.2421 0
M  V30 16 C 24.0133 8.7674 60.7099 0
M  V30 17 C 26.5225 9.5745 61.5229 0
M  V30 18 C 27.5869 7.4467 60.7908 0
M  V30 19 N 30.2915 8.2015 66.2426 0
M  V30 20 C 29.6367 8.065 63.9871 0
M  V30 21 C 24.0817 10.0933 61.4711 0
M  V30 22 C 25.3467 10.1228 62.325 0
M  V30 23 C 30.611 9.4773 66.1064 0
M  V30 24 C 29.9556 9.3965 63.8045 0
M  V30 25 C 30.4596 10.1184 64.8838 0
M  V30 26 N 30.7852 11.473 64.7259 0
M  V30 27 C 31.8385 11.9645 65.6211 0
M  V30 28 C 31.0484 11.8553 63.3359 0
M  V30 29 C 31.829 13.4961 65.563 0
M  V30 30 C 30.98 13.3824 63.261 0
M  V30 31 N 31.9724 13.9734 64.1748 0 CHG=1
M  V30 32 C 31.9014 15.4405 64.1215 0
M  V30 33 H 27.1573 2.4303 64.976 0
M  V30 34 H 23.5324 5.0042 63.3131 0
M  V30 35 H 29.7647 5.8063 66.37 0
M  V30 36 H 27.3968 8.1016 62.8338 0
M  V30 37 H 23.0019 8.6398 60.2964 0
M  V30 38 H 24.7456 8.783 59.8896 0
M  V30 39 H 26.2855 9.6253 60.45 0
M  V30 40 H 27.4173 10.1794 61.73 0
M  V30 41 H 28.5183 8.0048 60.6153 0
M  V30 42 H 27.8276 6.4128 61.079 0
M  V30 43 H 26.9843 7.4401 59.8708 0
M  V30 44 H 29.2603 7.4784 63.1625 0
M  V30 45 H 23.1987 10.1902 62.1199 0
M  V30 46 H 24.1032 10.9275 60.7544 0
M  V30 47 H 25.5607 11.1593 62.6254 0
M  V30 48 H 25.1964 9.505 63.2226 0
M  V30 49 H 30.9932 10.0264 66.9542 0
M  V30 50 H 29.8166 9.8687 62.8434 0
M  V30 51 H 32.8163 11.584 65.2918 0
M  V30 52 H 31.6414 11.6285 66.6499 0
M  V30 53 H 30.29 11.412 62.6741 0
M  V30 54 H 32.0473 11.5084 63.0334 0
M  V30 55 H 30.8779 13.866 65.9742 0
M  V30 56 H 32.6639 13.8841 66.1649 0
M  V30 57 H 31.1926 13.7072 62.2319 0
M  V30 58 H 29.973 13.7173 63.5506 0
M  V30 59 H 32.8793 13.7014 63.8538 0
M  V30 60 H 32.0103 15.7759 63.0795 0
M  V30 61 H 30.93 15.7753 64.5145 0
M  V30 62 H 32.7107 15.8691 64.7308 0
M  V30 END ATOM
M  V30 BEGIN BOND
M  V30 1 1 1 2
M  V30 2 2 2 3
M  V30 3 1 2 4
M  V30 4 1 3 5
M  V30 5 1 3 6
M  V30 6 2 4 7
M  V30 7 2 5 8
M  V30 8 2 6 9
M  V30 9 1 6 10
M  V30 10 1 8 11
M  V30 11 1 9 12
M  V30 12 1 9 13
M  V30 13 2 10 14
M  V30 14 1 11 15
M  V30 15 1 12 16
M  V30 16 1 13 17
M  V30 17 1 13 18
M  V30 18 2 15 19
M  V30 19 1 15 20
M  V30 20 1 16 21
M  V30 21 1 17 22
M  V30 22 1 19 23
M  V30 23 2 20 24
M  V30 24 2 23 25
M  V30 25 1 25 26
M  V30 26 1 26 27
M  V30 27 1 26 28
M  V30 28 1 27 29
M  V30 29 1 28 30
M  V30 30 1 29 31
M  V30 31 1 31 32
M  V30 32 1 7 8
M  V30 33 1 12 14
M  V30 34 1 21 22
M  V30 35 1 24 25
M  V30 36 1 30 31
M  V30 37 1 4 33
M  V30 38 1 10 34
M  V30 39 1 11 35
M  V30 40 1 13 36
M  V30 41 1 16 37
M  V30 42 1 16 38
M  V30 43 1 17 39
M  V30 44 1 17 40
M  V30 45 1 18 41
M  V30 46 1 18 42
M  V30 47 1 18 43
M  V30 48 1 20 44
M  V30 49 1 21 45
M  V30 50 1 21 46
M  V30 51 1 22 47
M  V30 52 1 22 48
M  V30 53 1 23 49
M  V30 54 1 24 50
M  V30 55 1 27 51
M  V30 56 1 27 52
M  V30 57 1 28 53
M  V30 58 1 28 54
M  V30 59 1 29 55
M  V30 60 1 29 56
M  V30 61 1 30 57
M  V30 62 1 30 58
M  V30 63 1 31 59
M  V30 64 1 32 60
M  V30 65 1 32 61
M  V30 66 1 32 62
M  V30 END BOND
M  V30 BEGIN COLLECTION
M  V30 MDLV30/STERAC1 ATOMS=(1 13)
M  V30 END COLLECTION
M  V30 END CTAB
M  END
>  <Molecule Name>
UHCMUGYUWQCODZ-GIEZSIAQNA-O

>  <hs_clash>
20.0

>  <hs_total>
140.34508040066382

>  <Total Molweight>
437.545

>  <cLogP>
1.559

>  <H-Acceptors>
8

>  <H-Donors>
2

>  <Polar Surface Area>
76.2

>  <Non-H Atoms>
32

>  <sp3-Atoms>
12

$$$$
JECHSYMSTXETFI-UHFFFAOYNA-N
Actelion Java MolfileCreator 2.0

  0  0  0  0  0  0              0 V3000
M  V30 BEGIN CTAB
M  V30 COUNTS 38 41 0 0 0
M  V30 BEGIN ATOM
M  V30 1 Br 25.1184 3.9792 63.44 0
M  V30 2 C 26.7061 4.5867 64.0847 0
M  V30 3 C 27.2984 5.8684 63.9346 0
M  V30 4 C 27.6378 3.8421 64.9141 0
M  V30 5 N 26.941 7.0118 63.2346 0
M  V30 6 N 28.5062 5.7742 64.6797 0
M  V30 7 N 28.6533 4.58 65.2872 0
M  V30 8 C 27.832 8.0263 63.2668 0
M  V30 9 C 29.4234 6.8029 64.658 0
M  V30 10 C 27.5044 9.3023 62.5805 0
M  V30 11 C 29.068 7.9721 63.9684 0
M  V30 12 N 30.5817 6.6532 65.357 0
M  V30 13 C 26.1781 9.6165 62.2884 0
M  V30 14 C 28.5305 10.2178 62.2576 0
M  V30 15 C 31.628 7.6191 65.1432 0
M  V30 16 C 25.8689 10.8062 61.6239 0
M  V30 17 C 28.2085 11.4265 61.612 0
M  V30 18 C 31.7316 8.605 66.2375 0
M  V30 19 C 26.8659 11.7147 61.3067 0
M  V30 20 C 31.8755 8.1766 67.5349 0
M  V30 21 C 31.6918 9.9768 65.9805 0
M  V30 22 C 32.0089 9.1287 68.5601 0
M  V30 23 C 31.7956 10.8577 67.0715 0
M  V30 24 N 31.9549 10.4583 68.3387 0
M  V30 25 H 27.5086 2.8059 65.1896 0
M  V30 26 H 29.7292 8.8259 63.9701 0
M  V30 27 H 30.7021 5.8963 65.9991 0
M  V30 28 H 25.3877 8.9391 62.5763 0
M  V30 29 H 29.5571 9.9914 62.5048 0
M  V30 30 H 32.5861 7.0856 65.0595 0
M  V30 31 H 31.4236 8.1561 64.2053 0
M  V30 32 H 24.8447 11.0194 61.3554 0
M  V30 33 H 28.9871 12.1284 61.3531 0
M  V30 34 H 26.6115 12.6468 60.8238 0
M  V30 35 H 31.886 7.1213 67.7642 0
M  V30 36 H 31.5843 10.3504 64.9731 0
M  V30 37 H 32.1618 8.7801 69.5709 0
M  V30 38 H 31.7437 11.9188 66.8753 0
M  V30 END ATOM
M  V30 BEGIN BOND
M  V30 1 1 1 2
M  V30 2 2 2 3
M  V30 3 1 2 4
M  V30 4 1 3 5
M  V30 5 1 3 6
M  V30 6 2 4 7
M  V30 7 2 5 8
M  V30 8 1 6 9
M  V30 9 1 8 10
M  V30 10 1 8 11
M  V30 11 1 9 12
M  V30 12 2 10 13
M  V30 13 1 10 14
M  V30 14 1 12 15
M  V30 15 1 13 16
M  V30 16 2 14 17
M  V30 17 1 15 18
M  V30 18 2 16 19
M  V30 19 2 18 20
M  V30 20 1 18 21
M  V30 21 1 20 22
M  V30 22 2 21 23
M  V30 23 2 22 24
M  V30 24 1 6 7
M  V30 25 2 9 11
M  V30 26 1 17 19
M  V30 27 1 23 24
M  V30 28 1 4 25
M  V30 29 1 11 26
M  V30 30 1 12 27
M  V30 31 1 13 28
M  V30 32 1 14 29
M  V30 33 1 15 30
M  V30 34 1 15 31
M  V30 35 1 16 32
M  V30 36 1 17 33
M  V30 37 1 19 34
M  V30 38 1 20 35
M  V30 39 1 21 36
M  V30 40 1 22 37
M  V30 41 1 23 38
M  V30 END BOND
M  V30 END CTAB
M  END
>  <Molecule Name>
JECHSYMSTXETFI-UHFFFAOYNA-N

>  <hs_clash>
0.0

>  <hs_total>
139.8797897010047

>  <Total Molweight>
380.248

>  <cLogP>
2.4533

>  <H-Acceptors>
5

>  <H-Donors>
1

>  <Polar Surface Area>
55.11

>  <Non-H Atoms>
24

>  <sp3-Atoms>
1

$$$$
NKORVPQBJCGYEC-ZXHLJWNDNA-O
Actelion Java MolfileCreator 2.0

  0  0  0  0  0  0              0 V3000
M  V30 BEGIN CTAB
M  V30 COUNTS 41 44 0 0 0
M  V30 BEGIN ATOM
M  V30 1 S 32.9255 10.5984 64.7003 0
M  V30 2 O 33.4077 11.1414 65.9437 0
M  V30 3 O 34.0369 10.1735 63.9048 0
M  V30 4 N 32.1125 11.7216 63.8997 0
M  V30 5 C 32.0072 9.3087 64.9638 0
M  V30 6 C 31.0129 8.9558 64.0583 0
M  V30 7 C 32.2219 8.5102 66.0869 0
M  V30 8 C 30.2251 7.8224 64.2737 0
M  V30 9 C 31.4361 7.3786 66.2972 0
M  V30 10 C 30.407 7.0402 65.4116 0
M  V30 11 N 29.6893 5.85 65.6355 0
M  V30 12 C 28.5724 5.3436 65.0382 0
M  V30 13 N 27.8193 6.0223 64.1442 0
M  V30 14 N 28.174 4.1122 65.4223 0
M  V30 15 C 26.6927 5.4752 63.6146 0
M  V30 16 C 27.0699 3.5335 64.9312 0
M  V30 17 C 25.8808 6.2441 62.6206 0
M  V30 18 C 26.2855 4.2108 64.0083 0
M  V30 19 N 25.8331 7.5926 62.5552 0
M  V30 20 C 25.0763 5.7349 61.6642 0
M  V30 21 C 25.0165 7.8826 61.5625 0
M  V30 22 C 26.4696 8.498 63.31 0
M  V30 23 N 24.5386 6.6883 61.0093 0 CHG=1
M  V30 24 C 24.7368 9.1912 61.2113 0
M  V30 25 C 26.2484 9.8416 63.0239 0
M  V30 26 C 25.3785 10.1669 61.9761 0
M  V30 27 H 32.7449 12.2538 63.3366 0
M  V30 28 H 31.4304 11.2855 63.3127 0
M  V30 29 H 30.8479 9.5636 63.1809 0
M  V30 30 H 32.9964 8.7688 66.7936 0
M  V30 31 H 29.4691 7.5506 63.552 0
M  V30 32 H 31.6245 6.7532 67.1573 0
M  V30 33 H 30.0651 5.2733 66.3608 0
M  V30 34 H 26.7904 2.5412 65.2532 0
M  V30 35 H 25.3858 3.7661 63.6093 0
M  V30 36 H 24.9128 4.683 61.4817 0
M  V30 37 H 27.1294 8.1967 64.11 0
M  V30 38 H 23.898 6.6002 60.2465 0
M  V30 39 H 24.0678 9.4409 60.4013 0
M  V30 40 H 26.7362 10.6162 63.597 0
M  V30 41 H 25.1978 11.2079 61.7518 0
M  V30 END ATOM
M  V30 BEGIN BOND
M  V30 1 2 1 2
M  V30 2 2 1 3
M  V30 3 1 1 4
M  V30 4 1 1 5
M  V30 5 2 5 6
M  V30 6 1 5 7
M  V30 7 1 6 8
M  V30 8 2 7 9
M  V30 9 2 8 10
M  V30 10 1 10 11
M  V30 11 1 11 12
M  V30 12 2 12 13
M  V30 13 1 12 14
M  V30 14 1 13 15
M  V30 15 2 14 16
M  V30 16 1 15 17
M  V30 17 2 15 18
M  V30 18 1 17 19
M  V30 19 2 17 20
M  V30 20 1 19 21
M  V30 21 1 19 22
M  V30 22 1 20 23
M  V30 23 1 21 24
M  V30 24 2 22 25
M  V30 25 2 24 26
M  V30 26 1 9 10
M  V30 27 1 16 18
M  V30 28 2 21 23
M  V30 29 1 25 26
M  V30 30 1 4 27
M  V30 31 1 4 28
M  V30 32 1 6 29
M  V30 33 1 7 30
M  V30 34 1 8 31
M  V30 35 1 9 32
M  V30 36 1 11 33
M  V30 37 1 16 34
M  V30 38 1 18 35
M  V30 39 1 20 36
M  V30 40 1 22 37
M  V30 41 1 23 38
M  V30 42 1 24 39
M  V30 43 1 25 40
M  V30 44 1 26 41
M  V30 END BOND
M  V30 END CTAB
M  END
>  <Molecule Name>
NKORVPQBJCGYEC-ZXHLJWNDNA-O

>  <hs_clash>
2.0

>  <hs_total>
139.64753651810005

>  <Total Molweight>
367.412

>  <cLogP>
-0.4338

>  <H-Acceptors>
8

>  <H-Donors>
3

>  <Polar Surface Area>
124.9

>  <Non-H Atoms>
26

>  <sp3-Atoms>
1

$$$$
SIJAJBIYANDPCR-UHFFFAOYNA-N
Actelion Java MolfileCreator 2.0

  0  0  0  0  0  0              0 V3000
M  V30 BEGIN CTAB
M  V30 COUNTS 37 40 0 0 0
M  V30 BEGIN ATOM
M  V30 1 Br 25.7476 12.4614 62.2091 0
M  V30 2 C 25.9568 10.7129 61.516 0
M  V30 3 C 26.4401 9.7053 62.3431 0
M  V30 4 C 25.6073 10.431 60.1851 0
M  V30 5 C 26.6039 8.4107 61.852 0
M  V30 6 C 25.752 9.1272 59.6793 0
M  V30 7 C 27.1117 7.3309 62.752 0
M  V30 8 C 26.2522 8.1116 60.5115 0
M  V30 9 N 26.4309 6.1532 62.8444 0
M  V30 10 C 28.2936 7.5041 63.4926 0
M  V30 11 C 26.8774 5.1777 63.672 0
M  V30 12 C 28.7363 6.4348 64.3035 0
M  V30 13 N 26.3637 3.9696 63.8977 0
M  V30 14 N 27.9939 5.3069 64.3613 0
M  V30 15 N 29.9336 6.528 65.0422 0
M  V30 16 C 27.2067 3.3438 64.7583 0
M  V30 17 N 28.2094 4.2144 65.0517 0
M  V30 18 C 31.0409 7.3324 64.5446 0
M  V30 19 C 31.315 8.4427 65.5278 0
M  V30 20 C 31.3122 8.181 66.8926 0
M  V30 21 C 31.5508 9.7274 65.0787 0
M  V30 22 C 31.5404 9.2104 67.7939 0
M  V30 23 C 31.794 10.736 66.0043 0
M  V30 24 N 31.7722 10.4662 67.3442 0
M  V30 25 H 26.6895 9.9265 63.3705 0
M  V30 26 H 25.2266 11.2169 59.5497 0
M  V30 27 H 25.48 8.9079 58.6575 0
M  V30 28 H 26.3683 7.1076 60.1316 0
M  V30 29 H 28.848 8.4296 63.4436 0
M  V30 30 H 30.1911 5.7071 65.552 0
M  V30 31 H 27.1005 2.3392 65.1397 0
M  V30 32 H 31.9366 6.7032 64.4385 0
M  V30 33 H 30.7761 7.7615 63.567 0
M  V30 34 H 31.1326 7.1782 67.2508 0
M  V30 35 H 31.5464 9.9459 64.0212 0
M  V30 36 H 31.5333 9.0104 68.8553 0
M  V30 37 H 32.0013 11.7395 65.6628 0
M  V30 END ATOM
M  V30 BEGIN BOND
M  V30 1 1 1 2
M  V30 2 2 2 3
M  V30 3 1 2 4
M  V30 4 1 3 5
M  V30 5 2 4 6
M  V30 6 1 5 7
M  V30 7 2 5 8
M  V30 8 2 7 9
M  V30 9 1 7 10
M  V30 10 1 9 11
M  V30 11 2 10 12
M  V30 12 2 11 13
M  V30 13 1 11 14
M  V30 14 1 12 15
M  V30 15 1 13 16
M  V30 16 1 14 17
M  V30 17 1 15 18
M  V30 18 1 18 19
M  V30 19 2 19 20
M  V30 20 1 19 21
M  V30 21 1 20 22
M  V30 22 2 21 23
M  V30 23 2 22 24
M  V30 24 1 6 8
M  V30 25 1 12 14
M  V30 26 2 16 17
M  V30 27 1 23 24
M  V30 28 1 3 25
M  V30 29 1 4 26
M  V30 30 1 6 27
M  V30 31 1 8 28
M  V30 32 1 10 29
M  V30 33 1 15 30
M  V30 34 1 16 31
M  V30 35 1 18 32
M  V30 36 1 18 33
M  V30 37 1 20 34
M  V30 38 1 21 35
M  V30 39 1 22 36
M  V30 40 1 23 37
M  V30 END BOND
M  V30 END CTAB
M  END
>  <Molecule Name>
SIJAJBIYANDPCR-UHFFFAOYNA-N

>  <hs_clash>
0.0

>  <hs_total>
139.56764937407218

>  <Total Molweight>
381.236

>  <cLogP>
2.1503

>  <H-Acceptors>
6

>  <H-Donors>
1

>  <Polar Surface Area>
68

>  <Non-H Atoms>
24

>  <sp3-Atoms>
1

$$$$
CJQHODVHGDYGJK-BUKGPZPNNA-N
Actelion Java MolfileCreator 2.0

  0  0  0  0  0  0              0 V3000
M  V30 BEGIN CTAB
M  V30 COUNTS 39 41 0 0 0
M  V30 BEGIN ATOM
M  V30 1 S 33.2085 10.6252 64.6435 0
M  V30 2 O 34.2967 10.1233 63.8527 0
M  V30 3 O 33.7243 11.1425 65.8992 0
M  V30 4 N 32.4306 11.8445 63.763 0
M  V30 5 C 32.1215 9.2768 64.9611 0
M  V30 6 C 32.2738 8.5158 66.1572 0
M  V30 7 C 31.1248 8.9464 64.0145 0
M  V30 8 C 31.4234 7.4128 66.3955 0
M  V30 9 C 30.2753 7.8463 64.2486 0
M  V30 10 C 30.4174 7.0613 65.4433 0
M  V30 11 N 29.6918 6.0291 65.7199 0
M  V30 12 C 28.713 5.5083 65.062 0
M  V30 13 S 27.6733 6.3647 63.9757 0
M  V30 14 N 28.4413 4.2337 65.2115 0
M  V30 15 C 26.7779 4.9207 63.6814 0
M  V30 16 C 27.3491 3.8876 64.438 0
M  V30 17 C 25.6718 4.8023 62.8303 0
M  V30 18 N 26.9054 2.6978 64.4272 0
M  V30 19 O 25.0503 3.7406 62.7965 0
M  V30 20 C 25.2515 5.86 62.0198 0
M  V30 21 C 23.8695 6.2456 62.0058 0
M  V30 22 C 26.1818 6.5818 61.1839 0
M  V30 23 C 23.4351 7.3282 61.1801 0
M  V30 24 C 25.7326 7.6568 60.3704 0
M  V30 25 F 22.1559 7.6861 61.1706 0
M  V30 26 C 24.3637 8.0296 60.3705 0
M  V30 27 H 33.0989 12.3235 63.1939 0
M  V30 28 H 31.727 11.4386 63.1803 0
M  V30 29 H 33.0345 8.7807 66.8766 0
M  V30 30 H 31.0147 9.5345 63.1154 0
M  V30 31 H 31.5337 6.8338 67.3005 0
M  V30 32 H 29.5136 7.5926 63.5265 0
M  V30 33 H 30.2149 5.3334 66.2123 0
M  V30 34 H 25.9559 2.6929 64.7411 0
M  V30 35 H 27.4599 2.1297 65.0352 0
M  V30 36 H 23.156 5.717 62.6205 0
M  V30 37 H 27.2251 6.3032 61.1771 0
M  V30 38 H 26.4358 8.1922 59.7498 0
M  V30 39 H 24.0281 8.8494 59.7526 0
M  V30 END ATOM
M  V30 BEGIN BOND
M  V30 1 2 1 2
M  V30 2 2 1 3
M  V30 3 1 1 4
M  V30 4 1 1 5
M  V30 5 2 5 6
M  V30 6 1 5 7
M  V30 7 1 6 8
M  V30 8 2 7 9
M  V30 9 2 8 10
M  V30 10 1 10 11
M  V30 11 1 11 12
M  V30 12 1 12 13
M  V30 13 2 12 14
M  V30 14 1 13 15
M  V30 15 1 14 16
M  V30 16 1 15 17
M  V30 17 1 16 18
M  V30 18 2 17 19
M  V30 19 1 17 20
M  V30 20 2 20 21
M  V30 21 1 20 22
M  V30 22 1 21 23
M  V30 23 2 22 24
M  V30 24 1 23 25
M  V30 25 2 23 26
M  V30 26 1 9 10
M  V30 27 2 15 16
M  V30 28 1 24 26
M  V30 29 1 4 27
M  V30 30 1 4 28
M  V30 31 1 6 29
M  V30 32 1 7 30
M  V30 33 1 8 31
M  V30 34 1 9 32
M  V30 35 1 11 33
M  V30 36 1 18 34
M  V30 37 1 18 35
M  V30 38 1 21 36
M  V30 39 1 22 37
M  V30 40 1 24 38
M  V30 41 1 26 39
M  V30 END BOND
M  V30 END CTAB
M  END
>  <Molecule Name>
CJQHODVHGDYGJK-BUKGPZPNNA-N

>  <hs_clash>
3.0

>  <hs_total>
139.5461227096288

>  <Total Molweight>
392.434

>  <cLogP>
2.5664

>  <H-Acceptors>
7

>  <H-Donors>
3

>  <Polar Surface Area>
164.79

>  <Non-H Atoms>
26

>  <sp3-Atoms>
1

$$$$
XOKMDOXIMWIBTG-PAADELDNNA-M
Actelion Java MolfileCreator 2.0

  0  0  0  0  0  0              0 V3000
M  V30 BEGIN CTAB
M  V30 COUNTS 32 34 0 0 0
M  V30 BEGIN ATOM
M  V30 1 O 34.664 11.4619 66.5253 0
M  V30 2 C 34.0429 10.6881 67.2806 0
M  V30 3 O 34.2142 10.6247 68.5172 0 CHG=-1
M  V30 4 C 32.9504 9.8027 66.6563 0
M  V30 5 C 32.6052 9.9458 65.3063 0
M  V30 6 C 32.2829 8.8794 67.4598 0
M  V30 7 C 31.5958 9.1534 64.7485 0
M  V30 8 C 31.2626 8.1002 66.9111 0
M  V30 9 C 30.9123 8.2284 65.5541 0
M  V30 10 C 29.7595 7.4243 64.9378 0
M  V30 11 O 29.0739 7.9259 64.0465 0
M  V30 12 N 29.4893 6.2433 65.5214 0
M  V30 13 C 28.5001 5.3972 65.1807 0
M  V30 14 N 28.5214 4.1106 65.5694 0
M  V30 15 C 27.3993 5.6195 64.4199 0
M  V30 16 N 27.5158 3.5395 65.0914 0
M  V30 17 C 26.7911 4.4246 64.3815 0
M  V30 18 C 25.4593 3.9889 63.7474 0
M  V30 19 C 25.0024 4.6271 62.429 0
M  V30 20 C 24.3116 5.0127 63.7406 0
M  V30 21 H 33.1203 10.6707 64.6935 0
M  V30 22 H 32.5533 8.7677 68.4994 0
M  V30 23 H 31.3432 9.2533 63.7033 0
M  V30 24 H 30.7368 7.3921 67.5345 0
M  V30 25 H 30.0792 5.9681 66.2804 0
M  V30 26 H 27.0859 6.5423 63.9543 0
M  V30 27 H 27.2862 2.5745 65.2173 0
M  V30 28 H 25.1698 2.9394 63.9037 0
M  V30 29 H 24.4662 4.0225 61.6829 0
M  V30 30 H 25.651 5.3523 61.9161 0
M  V30 31 H 24.465 6.0139 64.1697 0
M  V30 32 H 23.2802 4.6841 63.9366 0
M  V30 END ATOM
M  V30 BEGIN BOND
M  V30 1 2 1 2
M  V30 2 1 2 3
M  V30 3 1 2 4
M  V30 4 2 4 5
M  V30 5 1 4 6
M  V30 6 1 5 7
M  V30 7 2 6 8
M  V30 8 2 7 9
M  V30 9 1 9 10
M  V30 10 2 10 11
M  V30 11 1 10 12
M  V30 12 1 12 13
M  V30 13 2 13 14
M  V30 14 1 13 15
M  V30 15 1 14 16
M  V30 16 2 15 17
M  V30 17 1 17 18
M  V30 18 1 18 19
M  V30 19 1 18 20
M  V30 20 1 8 9
M  V30 21 1 16 17
M  V30 22 1 19 20
M  V30 23 1 5 21
M  V30 24 1 6 22
M  V30 25 1 7 23
M  V30 26 1 8 24
M  V30 27 1 12 25
M  V30 28 1 15 26
M  V30 29 1 16 27
M  V30 30 1 18 28
M  V30 31 1 19 29
M  V30 32 1 19 30
M  V30 33 1 20 31
M  V30 34 1 20 32
M  V30 END BOND
M  V30 END CTAB
M  END
>  <Molecule Name>
XOKMDOXIMWIBTG-PAADELDNNA-M

>  <hs_clash>
0.0

>  <hs_total>
139.49520702223896

>  <Total Molweight>
270.267

>  <cLogP>
-0.374

>  <H-Acceptors>
6

>  <H-Donors>
2

>  <Polar Surface Area>
97.91

>  <Non-H Atoms>
20

>  <sp3-Atoms>
4

$$$$
AMFGILNPFBVREA-PJQSKVNONA-N
Actelion Java MolfileCreator 2.0

  0  0  0  0  0  0              0 V3000
M  V30 BEGIN CTAB
M  V30 COUNTS 66 69 0 0 0
M  V30 BEGIN ATOM
M  V30 1 S 32.1724 11.222 64.7708 0
M  V30 2 O 33.222 11.2973 65.7448 0
M  V30 3 O 32.809 11.1512 63.4743 0
M  V30 4 C 31.3282 9.8719 64.9526 0
M  V30 5 C 31.1765 12.5519 64.9288 0
M  V30 6 C 31.8283 8.8581 65.7534 0
M  V30 7 C 30.1049 9.6705 64.3052 0
M  V30 8 C 31.4436 13.5448 63.8131 0
M  V30 9 C 31.1238 7.6694 65.9095 0
M  V30 10 C 29.3954 8.473 64.4624 0
M  V30 11 N 30.5901 13.3185 62.6567 0
M  V30 12 C 29.9063 7.4606 65.2751 0
M  V30 13 C 30.0305 14.4612 61.9428 0
M  V30 14 N 29.2932 6.2687 65.4927 0
M  V30 15 C 30.2682 14.3665 60.4364 0
M  V30 16 C 28.1109 5.8438 64.9868 0
M  V30 17 C 31.7198 14.6544 60.049 0
M  V30 18 N 27.3907 6.646 64.1703 0
M  V30 19 N 27.6841 4.6077 65.3272 0
M  V30 20 O 32.5856 13.6419 60.5873 0
M  V30 21 C 26.2043 6.2813 63.6546 0
M  V30 22 C 26.5165 4.1166 64.87 0
M  V30 23 O 25.5091 7.1128 62.8367 0
M  V30 24 C 25.6855 4.9463 63.985 0
M  V30 25 N 25.8613 2.9704 65.0239 0
M  V30 26 C 25.4115 8.5021 63.1211 0
M  V30 27 N 24.5938 4.2396 63.6658 0
M  V30 28 C 24.7113 3.0505 64.3007 0
M  V30 29 C 25.8139 9.2391 61.8386 0
M  V30 30 C 25.5402 10.7451 61.9853 0
M  V30 31 C 25.2649 8.4994 60.5924 0
M  V30 32 C 24.5554 11.3158 60.9702 0
M  V30 33 C 24.5546 9.3137 59.5055 0
M  V30 34 C 24.8602 10.8052 59.5636 0
M  V30 35 H 30.1266 12.2271 64.8816 0
M  V30 36 H 31.3672 13.0356 65.8981 0
M  V30 37 H 32.7724 8.9921 66.2605 0
M  V30 38 H 29.7014 10.4494 63.6752 0
M  V30 39 H 31.2626 14.5613 64.1931 0
M  V30 40 H 32.4941 13.4519 63.5011 0
M  V30 41 H 31.5321 6.892 66.5379 0
M  V30 42 H 28.4524 8.3334 63.9546 0
M  V30 43 H 31.1287 12.7975 61.9952 0
M  V30 44 H 28.947 14.5009 62.1296 0
M  V30 45 H 30.5013 15.381 62.3196 0
M  V30 46 H 29.6306 5.7528 66.28 0
M  V30 47 H 30.0094 13.351 60.1025 0
M  V30 48 H 29.6178 15.0956 59.9309 0
M  V30 49 H 31.8084 14.6635 58.9528 0
M  V30 50 H 32.015 15.6356 60.449 0
M  V30 51 H 32.5289 12.8592 60.0524 0
M  V30 52 H 26.1597 2.1897 65.5725 0
M  V30 53 H 24.3794 8.7613 63.4001 0
M  V30 54 H 26.0915 8.7704 63.9429 0
M  V30 55 H 23.9793 2.2588 64.2407 0
M  V30 56 H 26.9079 9.1443 61.7756 0
M  V30 57 H 25.1356 10.9236 62.9926 0
M  V30 58 H 26.4952 11.2794 61.874 0
M  V30 59 H 26.1171 7.9953 60.114 0
M  V30 60 H 24.5483 7.7465 60.9526 0
M  V30 61 H 24.6271 12.4136 60.9776 0
M  V30 62 H 23.5353 11.0133 61.2494 0
M  V30 63 H 24.8695 8.9321 58.5234 0
M  V30 64 H 23.4692 9.1766 59.6213 0
M  V30 65 H 25.9217 10.9742 59.3312 0
M  V30 66 H 24.2352 11.3395 58.833 0
M  V30 END ATOM
M  V30 BEGIN BOND
M  V30 1 2 1 2
M  V30 2 2 1 3
M  V30 3 1 1 4
M  V30 4 1 1 5
M  V30 5 2 4 6
M  V30 6 1 4 7
M  V30 7 1 5 8
M  V30 8 1 6 9
M  V30 9 2 7 10
M  V30 10 1 8 11
M  V30 11 2 9 12
M  V30 12 1 11 13
M  V30 13 1 12 14
M  V30 14 1 13 15
M  V30 15 1 14 16
M  V30 16 1 15 17
M  V30 17 2 16 18
M  V30 18 1 16 19
M  V30 19 1 17 20
M  V30 20 1 18 21
M  V30 21 2 19 22
M  V30 22 1 21 23
M  V30 23 2 21 24
M  V30 24 1 22 25
M  V30 25 1 23 26
M  V30 26 1 24 27
M  V30 27 1 25 28
M  V30 28 1 26 29
M  V30 29 1 29 30
M  V30 30 1 29 31
M  V30 31 1 30 32
M  V30 32 1 31 33
M  V30 33 1 32 34
M  V30 34 1 10 12
M  V30 35 1 22 24
M  V30 36 2 27 28
M  V30 37 1 33 34
M  V30 38 1 5 35
M  V30 39 1 5 36
M  V30 40 1 6 37
M  V30 41 1 7 38
M  V30 42 1 8 39
M  V30 43 1 8 40
M  V30 44 1 9 41
M  V30 45 1 10 42
M  V30 46 1 11 43
M  V30 47 1 13 44
M  V30 48 1 13 45
M  V30 49 1 14 46
M  V30 50 1 15 47
M  V30 51 1 15 48
M  V30 52 1 17 49
M  V30 53 1 17 50
M  V30 54 1 20 51
M  V30 55 1 25 52
M  V30 56 1 26 53
M  V30 57 1 26 54
M  V30 58 1 28 55
M  V30 59 1 29 56
M  V30 60 1 30 57
M  V30 61 1 30 58
M  V30 62 1 31 59
M  V30 63 1 31 60
M  V30 64 1 32 61
M  V30 65 1 32 62
M  V30 66 1 33 63
M  V30 67 1 33 64
M  V30 68 1 34 65
M  V30 69 1 34 66
M  V30 END BOND
M  V30 END CTAB
M  END
>  <Molecule Name>
AMFGILNPFBVREA-PJQSKVNONA-N

>  <hs_clash>
24.0

>  <hs_total>
139.39324447548856

>  <Total Molweight>
488.611

>  <cLogP>
2.3706

>  <H-Acceptors>
10

>  <H-Donors>
4

>  <Polar Surface Area>
150.5

>  <Non-H Atoms>
34

>  <sp3-Atoms>
16

$$$$
DEIGLICSSNUYPO-GPQMBLKYNA-N
Actelion Java MolfileCreator 2.0

  0  0  0  0  0  0              0 V3000
M  V30 BEGIN CTAB
M  V30 COUNTS 36 38 0 0 0
M  V30 BEGIN ATOM
M  V30 1 S 26.87 7.4991 61.7418 0
M  V30 2 C 26.145 6.0886 62.4342 0
M  V30 3 C 25.4851 7.7009 60.7656 0
M  V30 4 C 26.9687 5.318 63.358 0
M  V30 5 C 24.898 5.859 61.8707 0
M  V30 6 N 24.5161 6.8023 60.9125 0
M  V30 7 C 25.3988 8.8217 59.7868 0
M  V30 8 N 27.9656 6.0929 63.935 0
M  V30 9 C 26.7678 3.9698 63.7071 0
M  V30 10 C 23.9182 4.7677 62.0711 0
M  V30 11 C 28.7914 5.4804 64.8694 0
M  V30 12 C 27.6563 3.4268 64.6766 0
M  V30 13 N 28.6638 4.1418 65.2663 0
M  V30 14 N 29.8861 6.1224 65.4731 0
M  V30 15 C 30.2975 7.4674 65.2619 0
M  V30 16 C 29.5406 8.4269 64.5239 0
M  V30 17 C 31.5046 7.8785 65.9138 0
M  V30 18 C 29.9707 9.7579 64.4818 0
M  V30 19 C 31.9137 9.2204 65.8417 0
M  V30 20 N 29.1183 10.7554 63.7341 0 CHG=1
M  V30 21 C 31.1482 10.1843 65.1318 0
M  V30 22 O 29.6428 11.7138 63.2092 0
M  V30 23 O 27.9205 10.567 63.675 0 CHG=-1
M  V30 24 H 24.4424 8.7647 59.2461 0
M  V30 25 H 25.4604 9.7813 60.3216 0
M  V30 26 H 26.2299 8.7474 59.0703 0
M  V30 27 H 25.9805 3.3789 63.263 0
M  V30 28 H 23.0565 4.9212 61.4048 0
M  V30 29 H 24.3926 3.8026 61.8408 0
M  V30 30 H 23.5775 4.7687 63.117 0
M  V30 31 H 27.5289 2.3935 64.9635 0
M  V30 32 H 30.429 5.5803 66.1142 0
M  V30 33 H 28.6432 8.1281 64.0024 0
M  V30 34 H 32.0981 7.1595 66.4587 0
M  V30 35 H 32.8255 9.5249 66.3345 0
M  V30 36 H 31.4598 11.2178 65.0904 0
M  V30 END ATOM
M  V30 BEGIN BOND
M  V30 1 1 1 2
M  V30 2 1 1 3
M  V30 3 1 2 4
M  V30 4 2 2 5
M  V30 5 2 3 6
M  V30 6 1 3 7
M  V30 7 2 4 8
M  V30 8 1 4 9
M  V30 9 1 5 10
M  V30 10 1 8 11
M  V30 11 2 9 12
M  V30 12 2 11 13
M  V30 13 1 11 14
M  V30 14 1 14 15
M  V30 15 2 15 16
M  V30 16 1 15 17
M  V30 17 1 16 18
M  V30 18 2 17 19
M  V30 19 1 18 20
M  V30 20 2 18 21
M  V30 21 2 20 22
M  V30 22 1 20 23
M  V30 23 1 5 6
M  V30 24 1 12 13
M  V30 25 1 19 21
M  V30 26 1 7 24
M  V30 27 1 7 25
M  V30 28 1 7 26
M  V30 29 1 9 27
M  V30 30 1 10 28
M  V30 31 1 10 29
M  V30 32 1 10 30
M  V30 33 1 12 31
M  V30 34 1 14 32
M  V30 35 1 16 33
M  V30 36 1 17 34
M  V30 37 1 19 35
M  V30 38 1 21 36
M  V30 END BOND
M  V30 END CTAB
M  END
>  <Molecule Name>
DEIGLICSSNUYPO-GPQMBLKYNA-N

>  <hs_clash>
0.0

>  <hs_total>
139.1309994671415

>  <Total Molweight>
327.367

>  <cLogP>
2.6359

>  <H-Acceptors>
7

>  <H-Donors>
1

>  <Polar Surface Area>
124.76

>  <Non-H Atoms>
23

>  <sp3-Atoms>
3

$$$$
PUVVKKBHOWNLRX-GEEXJFRVNA-N
Actelion Java MolfileCreator 2.0

  0  0  0  0  0  0              0 V3000
M  V30 BEGIN CTAB
M  V30 COUNTS 47 49 0 0 0
M  V30 BEGIN ATOM
M  V30 1 O 29.417 8.1915 63.8795 0
M  V30 2 C 30.1553 7.3874 64.4662 0
M  V30 3 N 29.87 6.1254 64.9606 0
M  V30 4 C 31.5905 7.8361 64.7135 0
M  V30 5 C 28.7039 5.3875 64.8495 0
M  V30 6 C 31.6292 8.9085 65.7568 0
M  V30 7 N 28.6105 4.0858 65.3048 0
M  V30 8 C 27.5359 5.7243 64.1639 0
M  V30 9 C 31.9538 8.4941 67.0553 0
M  V30 10 C 31.3385 10.2475 65.499 0
M  V30 11 C 27.4105 3.6433 64.9635 0
M  V30 12 N 26.7342 4.6033 64.2886 0
M  V30 13 C 31.9829 9.3965 68.1055 0
M  V30 14 C 31.3997 11.1654 66.5699 0
M  V30 15 C 25.3842 4.5166 63.7652 0 CFG=1
M  V30 16 C 31.7022 10.7457 67.8633 0
M  V30 17 C 25.3692 4.785 62.2451 0
M  V30 18 C 24.4106 5.6955 63.9652 0
M  V30 19 O 31.727 11.6801 68.8636 0
M  V30 20 C 23.979 5.4751 62.4761 0 CFG=2
M  V30 21 C 33.0188 11.9011 69.4448 0
M  V30 22 N 23.9075 6.7663 61.733 0
M  V30 23 C 23.0338 6.8419 60.6611 0
M  V30 24 O 22.5617 5.8363 60.1181 0
M  V30 25 C 22.7547 8.255 60.1876 0
M  V30 26 H 30.6101 5.6859 65.4693 0
M  V30 27 H 32.1852 6.9762 65.0554 0
M  V30 28 H 32.0147 8.2263 63.7767 0
M  V30 29 H 27.3096 6.6485 63.6531 0
M  V30 30 H 32.1846 7.4555 67.2399 0
M  V30 31 H 31.073 10.5747 64.5046 0
M  V30 32 H 27.0263 2.6599 65.1902 0
M  V30 33 H 32.2203 9.0615 69.1042 0
M  V30 34 H 31.2083 12.2118 66.3834 0
M  V30 35 H 24.9003 3.558 64.0033 0
M  V30 36 H 26.164 5.4553 61.8863 0
M  V30 37 H 25.3389 3.8828 61.6169 0
M  V30 38 H 23.6174 5.5189 64.7066 0
M  V30 39 H 24.8925 6.6633 64.1678 0
M  V30 40 H 23.1155 4.8056 62.3495 0
M  V30 41 H 32.9407 12.6633 70.2343 0
M  V30 42 H 33.3912 10.9615 69.8782 0
M  V30 43 H 33.7155 12.2485 68.6678 0
M  V30 44 H 24.4699 7.5492 61.9994 0
M  V30 45 H 22.0869 8.2243 59.3141 0
M  V30 46 H 22.2734 8.8245 60.9965 0
M  V30 47 H 23.7007 8.7418 59.9093 0
M  V30 END ATOM
M  V30 BEGIN BOND
M  V30 1 2 1 2
M  V30 2 1 2 3
M  V30 3 1 2 4
M  V30 4 1 3 5
M  V30 5 1 4 6
M  V30 6 1 5 7
M  V30 7 2 5 8
M  V30 8 2 6 9
M  V30 9 1 6 10
M  V30 10 2 7 11
M  V30 11 1 8 12
M  V30 12 1 9 13
M  V30 13 2 10 14
M  V30 14 1 12 15
M  V30 15 2 13 16
M  V30 16 1 15 17
M  V30 17 1 15 18
M  V30 18 1 16 19
M  V30 19 1 17 20
M  V30 20 1 19 21
M  V30 21 1 20 22
M  V30 22 1 22 23
M  V30 23 2 23 24
M  V30 24 1 23 25
M  V30 25 1 11 12
M  V30 26 1 14 16
M  V30 27 1 18 20
M  V30 28 1 3 26
M  V30 29 1 4 27
M  V30 30 1 4 28
M  V30 31 1 8 29
M  V30 32 1 9 30
M  V30 33 1 10 31
M  V30 34 1 11 32
M  V30 35 1 13 33
M  V30 36 1 14 34
M  V30 37 1 15 35
M  V30 38 1 17 36
M  V30 39 1 17 37
M  V30 40 1 18 38
M  V30 41 1 18 39
M  V30 42 1 20 40
M  V30 43 1 21 41
M  V30 44 1 21 42
M  V30 45 1 21 43
M  V30 46 1 22 44
M  V30 47 1 25 45
M  V30 48 1 25 46
M  V30 49 1 25 47
M  V30 END BOND
M  V30 BEGIN COLLECTION
M  V30 MDLV30/STEABS ATOMS=(2 15 20)
M  V30 END COLLECTION
M  V30 END CTAB
M  END
>  <Molecule Name>
PUVVKKBHOWNLRX-GEEXJFRVNA-N

>  <hs_clash>
8.0

>  <hs_total>
139.11492527931483

>  <Total Molweight>
342.398

>  <cLogP>
1.6977

>  <H-Acceptors>
7

>  <H-Donors>
2

>  <Polar Surface Area>
85.25

>  <Non-H Atoms>
25

>  <sp3-Atoms>
8

$$$$
LQBKAYJFACGUCC-NPVYFSBINA-N
Actelion Java MolfileCreator 2.0

  0  0  0  0  0  0              0 V3000
M  V30 BEGIN CTAB
M  V30 COUNTS 40 43 0 0 0
M  V30 BEGIN ATOM
M  V30 1 S 30.7482 13.2944 69.0121 0
M  V30 2 C 31.456 11.7143 69.2021 0
M  V30 3 C 31.2578 13.7677 70.5641 0
M  V30 4 C 31.3685 10.7174 68.1485 0
M  V30 5 C 32.0639 11.589 70.415 0
M  V30 6 C 31.946 12.7902 71.2125 0
M  V30 7 C 31.1025 11.1152 66.813 0
M  V30 8 C 31.5826 9.3314 68.4268 0
M  V30 9 C 31.064 10.1827 65.7701 0
M  V30 10 C 31.552 8.4058 67.3709 0
M  V30 11 C 31.3089 8.8197 66.0602 0
M  V30 12 C 31.3444 7.8571 64.9436 0
M  V30 13 C 29.9224 7.3445 64.6597 0
M  V30 14 O 29.1018 7.9557 63.988 0
M  V30 15 N 29.6563 6.1234 65.2431 0
M  V30 16 C 28.5088 5.3791 65.0953 0
M  V30 17 N 28.4557 4.0961 65.5431 0
M  V30 18 C 27.3321 5.6911 64.323 0
M  V30 19 N 27.2989 3.5964 65.0772 0
M  V30 20 C 26.5756 4.5194 64.3352 0
M  V30 21 C 25.2956 4.1348 63.7397 0
M  V30 22 C 24.8933 4.62 62.3576 0
M  V30 23 C 24.2028 5.1786 63.5711 0
M  V30 24 H 31.0563 14.74 70.9893 0
M  V30 25 H 32.5751 10.6963 70.7431 0
M  V30 26 H 32.3559 12.8983 72.2061 0
M  V30 27 H 30.9262 12.1586 66.5966 0
M  V30 28 H 31.7661 8.9998 69.4382 0
M  V30 29 H 30.85 10.4988 64.7598 0
M  V30 30 H 31.7185 7.3588 67.5764 0
M  V30 31 H 31.7409 8.3528 64.0454 0
M  V30 32 H 31.9923 7.0097 65.2113 0
M  V30 33 H 30.3679 5.7413 65.8324 0
M  V30 34 H 27.0892 6.6267 63.841 0
M  V30 35 H 26.9917 2.66 65.247 0
M  V30 36 H 24.933 3.1287 63.997 0
M  V30 37 H 25.5802 5.2532 61.777 0
M  V30 38 H 24.3494 3.9486 61.6771 0
M  V30 39 H 24.3856 6.2195 63.8768 0
M  V30 40 H 23.1548 4.915 63.7768 0
M  V30 END ATOM
M  V30 BEGIN BOND
M  V30 1 1 1 2
M  V30 2 1 1 3
M  V30 3 1 2 4
M  V30 4 2 2 5
M  V30 5 2 3 6
M  V30 6 2 4 7
M  V30 7 1 4 8
M  V30 8 1 7 9
M  V30 9 2 8 10
M  V30 10 2 9 11
M  V30 11 1 11 12
M  V30 12 1 12 13
M  V30 13 2 13 14
M  V30 14 1 13 15
M  V30 15 1 15 16
M  V30 16 2 16 17
M  V30 17 1 16 18
M  V30 18 1 17 19
M  V30 19 2 18 20
M  V30 20 1 20 21
M  V30 21 1 21 22
M  V30 22 1 21 23
M  V30 23 1 5 6
M  V30 24 1 10 11
M  V30 25 1 19 20
M  V30 26 1 22 23
M  V30 27 1 3 24
M  V30 28 1 5 25
M  V30 29 1 6 26
M  V30 30 1 7 27
M  V30 31 1 8 28
M  V30 32 1 9 29
M  V30 33 1 10 30
M  V30 34 1 12 31
M  V30 35 1 12 32
M  V30 36 1 15 33
M  V30 37 1 18 34
M  V30 38 1 19 35
M  V30 39 1 21 36
M  V30 40 1 22 37
M  V30 41 1 22 38
M  V30 42 1 23 39
M  V30 43 1 23 40
M  V30 END BOND
M  V30 END CTAB
M  END
>  <Molecule Name>
LQBKAYJFACGUCC-NPVYFSBINA-N

>  <hs_clash>
0.0

>  <hs_total>
138.2654724204361

>  <Total Molweight>
323.419

>  <cLogP>
3.8977

>  <H-Acceptors>
4

>  <H-Donors>
2

>  <Polar Surface Area>
86.02

>  <Non-H Atoms>
23

>  <sp3-Atoms>
4

$$$$
CWGIVRBYIAXEMP-CLRGVMNRNA-N
Actelion Java MolfileCreator 2.0

  0  0  0  0  0  0              0 V3000
M  V30 BEGIN CTAB
M  V30 COUNTS 38 39 0 0 0
M  V30 BEGIN ATOM
M  V30 1 S 32.0557 11.6007 68.2856 0
M  V30 2 O 33.0798 11.1737 69.4823 0
M  V30 3 O 32.6271 12.7875 67.5795 0
M  V30 4 N 30.8493 12.0973 69.0186 0
M  V30 5 C 31.7249 10.2821 67.1966 0
M  V30 6 C 31.9959 10.4416 65.8122 0
M  V30 7 C 31.1878 9.0583 67.6938 0
M  V30 8 C 31.738 9.3861 64.9145 0
M  V30 9 C 30.9278 7.9906 66.7934 0
M  V30 10 C 31.2048 8.1577 65.3877 0
M  V30 11 C 30.9442 7.0558 64.3951 0
M  V30 12 N 29.6944 6.345 64.6194 0
M  V30 13 C 28.4672 6.7219 64.2479 0
M  V30 14 C 27.3413 5.7915 64.4252 0
M  V30 15 C 28.2041 7.9852 63.5577 0
M  V30 16 C 27.4844 4.5211 64.9565 0
M  V30 17 C 26.0445 6.1822 63.9401 0
M  V30 18 C 26.912 8.3202 63.096 0
M  V30 19 O 28.4417 4.269 65.8623 0
M  V30 20 N 26.6955 3.4769 64.59 0
M  V30 21 C 25.8029 7.4236 63.2787 0
M  V30 22 N 24.5772 7.7253 62.8528 0 CHG=1
M  V30 23 O 24.3398 8.7797 62.2844 0
M  V30 24 O 23.551 6.8831 63.0332 0 CHG=-1
M  V30 25 H 31.1248 12.4566 69.9103 0
M  V30 26 H 30.2039 11.3445 69.1481 0
M  V30 27 H 32.4003 11.3739 65.4462 0
M  V30 28 H 30.98 8.9439 68.7476 0
M  V30 29 H 31.9466 9.5119 63.8625 0
M  V30 30 H 30.5242 7.0583 67.16 0
M  V30 31 H 31.7702 6.3321 64.4561 0
M  V30 32 H 30.9163 7.4966 63.3877 0
M  V30 33 H 29.7291 5.6285 65.3162 0
M  V30 34 H 29.0172 8.6778 63.3977 0
M  V30 35 H 25.2153 5.5049 64.0835 0
M  V30 36 H 26.7546 9.2654 62.5975 0
M  V30 37 H 26.8434 2.5733 64.992 0
M  V30 38 H 25.9669 3.6124 63.9182 0
M  V30 END ATOM
M  V30 BEGIN BOND
M  V30 1 2 1 2
M  V30 2 2 1 3
M  V30 3 1 1 4
M  V30 4 1 1 5
M  V30 5 2 5 6
M  V30 6 1 5 7
M  V30 7 1 6 8
M  V30 8 2 7 9
M  V30 9 2 8 10
M  V30 10 1 10 11
M  V30 11 1 11 12
M  V30 12 1 12 13
M  V30 13 2 13 14
M  V30 14 1 13 15
M  V30 15 1 14 16
M  V30 16 1 14 17
M  V30 17 2 15 18
M  V30 18 2 16 19
M  V30 19 1 16 20
M  V30 20 2 17 21
M  V30 21 1 21 22
M  V30 22 2 22 23
M  V30 23 1 22 24
M  V30 24 1 9 10
M  V30 25 1 18 21
M  V30 26 1 4 25
M  V30 27 1 4 26
M  V30 28 1 6 27
M  V30 29 1 7 28
M  V30 30 1 8 29
M  V30 31 1 9 30
M  V30 32 1 11 31
M  V30 33 1 11 32
M  V30 34 1 12 33
M  V30 35 1 15 34
M  V30 36 1 17 35
M  V30 37 1 18 36
M  V30 38 1 20 37
M  V30 39 1 20 38
M  V30 END BOND
M  V30 END CTAB
M  END
>  <Molecule Name>
CWGIVRBYIAXEMP-CLRGVMNRNA-N

>  <hs_clash>
0.0

>  <hs_total>
137.90098338302317

>  <Total Molweight>
350.354

>  <cLogP>
-0.3456

>  <H-Acceptors>
9

>  <H-Donors>
3

>  <Polar Surface Area>
169.48

>  <Non-H Atoms>
24

>  <sp3-Atoms>
3

$$$$
UYPMMHCTXQIWDX-SDJPLELBNA-N
Actelion Java MolfileCreator 2.0

  0  0  0  0  0  0              0 V3000
M  V30 BEGIN CTAB
M  V30 COUNTS 30 32 0 0 0
M  V30 BEGIN ATOM
M  V30 1 O 28.5423 12.8871 61.5496 0
M  V30 2 C 28.0832 11.7531 61.5652 0
M  V30 3 N 28.7594 10.5572 61.5754 0
M  V30 4 C 26.5872 11.5459 61.5686 0
M  V30 5 C 27.802 9.4479 61.6072 0 CFG=2
M  V30 6 C 26.4088 10.0737 61.8369 0
M  V30 7 C 28.1647 8.5507 62.7735 0
M  V30 8 O 27.0298 7.7381 63.1537 0
M  V30 9 C 27.5529 6.7786 63.9231 0
M  V30 10 N 28.6178 6.9743 64.6946 0
M  V30 11 C 27.0244 5.4462 63.8372 0
M  V30 12 C 29.1454 5.9581 65.4344 0
M  V30 13 N 26.0025 4.9852 63.126 0
M  V30 14 C 27.5984 4.4493 64.6544 0
M  V30 15 N 28.6339 4.7402 65.4149 0
M  V30 16 N 30.2075 6.1276 66.2347 0
M  V30 17 C 25.9284 3.7296 63.487 0
M  V30 18 N 26.8843 3.3844 64.3705 0
M  V30 19 H 29.7542 10.4588 61.5635 0
M  V30 20 H 26.155 11.8187 60.5948 0
M  V30 21 H 26.1137 12.145 62.3607 0
M  V30 22 H 27.8136 8.8818 60.6643 0
M  V30 23 H 26.0775 9.9076 62.8727 0
M  V30 24 H 25.6728 9.6419 61.1428 0
M  V30 25 H 28.9986 7.8956 62.4816 0
M  V30 26 H 28.4687 9.1721 63.6289 0
M  V30 27 H 30.425 5.2633 66.688 0
M  V30 28 H 30.5185 7.0765 66.1802 0
M  V30 29 H 25.1808 3.044 63.1163 0
M  V30 30 H 27.0265 2.4693 64.7479 0
M  V30 END ATOM
M  V30 BEGIN BOND
M  V30 1 2 1 2
M  V30 2 1 2 3
M  V30 3 1 2 4
M  V30 4 1 3 5
M  V30 5 1 4 6
M  V30 6 1 5 7
M  V30 7 1 7 8
M  V30 8 1 8 9
M  V30 9 2 9 10
M  V30 10 1 9 11
M  V30 11 1 10 12
M  V30 12 1 11 13
M  V30 13 2 11 14
M  V30 14 2 12 15
M  V30 15 1 12 16
M  V30 16 2 13 17
M  V30 17 1 14 18
M  V30 18 1 5 6
M  V30 19 1 14 15
M  V30 20 1 17 18
M  V30 21 1 3 19
M  V30 22 1 4 20
M  V30 23 1 4 21
M  V30 24 1 5 22
M  V30 25 1 6 23
M  V30 26 1 6 24
M  V30 27 1 7 25
M  V30 28 1 7 26
M  V30 29 1 16 27
M  V30 30 1 16 28
M  V30 31 1 17 29
M  V30 32 1 18 30
M  V30 END BOND
M  V30 BEGIN COLLECTION
M  V30 MDLV30/STERAC1 ATOMS=(1 5)
M  V30 END COLLECTION
M  V30 END CTAB
M  END
>  <Molecule Name>
UYPMMHCTXQIWDX-SDJPLELBNA-N

>  <hs_clash>
0.0

>  <hs_total>
136.65531427829853

>  <Total Molweight>
248.245

>  <cLogP>
-0.4574

>  <H-Acceptors>
8

>  <H-Donors>
3

>  <Polar Surface Area>
118.81

>  <Non-H Atoms>
18

>  <sp3-Atoms>
5

$$$$
NJWGWVLFRYCKGD-YAQRNVERNA-N
Actelion Java MolfileCreator 2.0

  0  0  0  0  0  0              0 V3000
M  V30 BEGIN CTAB
M  V30 COUNTS 31 32 0 0 0
M  V30 BEGIN ATOM
M  V30 1 S 27.7129 6.4263 64.3178 0
M  V30 2 C 28.7289 5.5183 65.4677 0
M  V30 3 C 26.8504 4.8977 63.9404 0
M  V30 4 N 28.4136 4.2972 65.5084 0
M  V30 5 N 29.712 6.0734 66.1989 0
M  V30 6 C 27.3293 3.8626 64.6518 0
M  V30 7 C 25.7444 4.8502 62.94 0
M  V30 8 C 29.786 7.5561 66.1106 0
M  V30 9 N 26.8861 2.6168 64.5778 0
M  V30 10 O 25.1858 3.7767 62.7274 0
M  V30 11 C 25.2756 6.0644 62.1444 0
M  V30 12 C 31.1117 7.9602 65.5082 0
M  V30 13 C 26.2176 6.8847 61.4375 0
M  V30 14 C 23.8859 6.3818 62.0827 0
M  V30 15 C 31.4303 7.7032 64.2294 0
M  V30 16 C 25.7693 8.0116 60.6847 0
M  V30 17 C 23.4414 7.5095 61.3289 0
M  V30 18 C 24.3825 8.3239 60.631 0
M  V30 19 H 30.4817 5.5315 66.5362 0
M  V30 20 H 29.6942 7.9886 67.1183 0
M  V30 21 H 28.9669 7.9268 65.4769 0
M  V30 22 H 25.9206 2.5899 64.8373 0
M  V30 23 H 27.4139 2.0375 65.1992 0
M  V30 24 H 31.8295 8.4754 66.1295 0
M  V30 25 H 27.2707 6.6482 61.4753 0
M  V30 26 H 23.1687 5.7677 62.6073 0
M  V30 27 H 30.7271 7.1893 63.5908 0
M  V30 28 H 32.3896 8.0102 63.8399 0
M  V30 29 H 26.4823 8.6268 60.1563 0
M  V30 30 H 22.3885 7.7476 61.2866 0
M  V30 31 H 24.0421 9.1769 60.0625 0
M  V30 END ATOM
M  V30 BEGIN BOND
M  V30 1 1 1 2
M  V30 2 1 1 3
M  V30 3 2 2 4
M  V30 4 1 2 5
M  V30 5 2 3 6
M  V30 6 1 3 7
M  V30 7 1 5 8
M  V30 8 1 6 9
M  V30 9 2 7 10
M  V30 10 1 7 11
M  V30 11 1 8 12
M  V30 12 2 11 13
M  V30 13 1 11 14
M  V30 14 2 12 15
M  V30 15 1 13 16
M  V30 16 2 14 17
M  V30 17 2 16 18
M  V30 18 1 4 6
M  V30 19 1 17 18
M  V30 20 1 5 19
M  V30 21 1 8 20
M  V30 22 1 8 21
M  V30 23 1 9 22
M  V30 24 1 9 23
M  V30 25 1 12 24
M  V30 26 1 13 25
M  V30 27 1 14 26
M  V30 28 1 15 27
M  V30 29 1 15 28
M  V30 30 1 16 29
M  V30 31 1 17 30
M  V30 32 1 18 31
M  V30 END BOND
M  V30 END CTAB
M  END
>  <Molecule Name>
NJWGWVLFRYCKGD-YAQRNVERNA-N

>  <hs_clash>
0.0

>  <hs_total>
135.67954316476954

>  <Total Molweight>
259.332

>  <cLogP>
2.4934

>  <H-Acceptors>
4

>  <H-Donors>
2

>  <Polar Surface Area>
96.25

>  <Non-H Atoms>
18

>  <sp3-Atoms>
1

$$$$
QNNXJIYSLIKTDV-YAQRNVERNA-N
Actelion Java MolfileCreator 2.0

  0  0  0  0  0  0              0 V3000
M  V30 BEGIN CTAB
M  V30 COUNTS 30 31 0 0 0
M  V30 BEGIN ATOM
M  V30 1 S 27.5473 6.4996 64.0524 0
M  V30 2 C 28.5338 5.6486 65.1759 0
M  V30 3 C 26.7303 5.0159 63.685 0
M  V30 4 N 28.269 4.3411 65.2806 0
M  V30 5 N 29.5148 6.2188 65.9154 0
M  V30 6 C 27.2596 3.9731 64.4562 0
M  V30 7 C 25.7016 4.8939 62.7488 0
M  V30 8 C 29.8219 7.6379 65.7683 0
M  V30 9 N 26.8496 2.6975 64.415 0
M  V30 10 O 25.1217 3.6938 62.5373 0
M  V30 11 C 25.1672 6.0206 61.906 0
M  V30 12 C 31.1798 7.8236 65.1588 0
M  V30 13 C 23.7703 6.2471 61.7607 0
M  V30 14 C 26.0667 6.8912 61.2122 0
M  V30 15 C 31.3812 7.8439 63.7111 0
M  V30 16 N 23.3257 7.2959 60.9655 0
M  V30 17 C 25.5857 7.9637 60.4029 0
M  V30 18 C 24.1923 8.1499 60.2951 0
M  V30 19 H 30.1865 5.6261 66.3601 0
M  V30 20 H 29.0669 8.1055 65.1189 0
M  V30 21 H 29.8011 8.117 66.7583 0
M  V30 22 H 27.3927 2.1515 65.0526 0
M  V30 23 H 26.1019 2.6086 63.7567 0
M  V30 24 H 32.0336 7.946 65.8088 0
M  V30 25 H 23.0604 5.6082 62.2648 0
M  V30 26 H 27.1312 6.7333 61.3029 0
M  V30 27 H 32.3728 7.9798 63.3061 0
M  V30 28 H 30.5382 7.7231 63.0471 0
M  V30 29 H 26.2724 8.6172 59.8857 0
M  V30 30 H 23.7992 8.9554 59.6925 0
M  V30 END ATOM
M  V30 BEGIN BOND
M  V30 1 1 1 2
M  V30 2 1 1 3
M  V30 3 2 2 4
M  V30 4 1 2 5
M  V30 5 2 3 6
M  V30 6 1 3 7
M  V30 7 1 5 8
M  V30 8 1 6 9
M  V30 9 2 7 10
M  V30 10 1 7 11
M  V30 11 1 8 12
M  V30 12 2 11 13
M  V30 13 1 11 14
M  V30 14 2 12 15
M  V30 15 1 13 16
M  V30 16 2 14 17
M  V30 17 2 16 18
M  V30 18 1 4 6
M  V30 19 1 17 18
M  V30 20 1 5 19
M  V30 21 1 8 20
M  V30 22 1 8 21
M  V30 23 1 9 22
M  V30 24 1 9 23
M  V30 25 1 12 24
M  V30 26 1 13 25
M  V30 27 1 14 26
M  V30 28 1 15 27
M  V30 29 1 15 28
M  V30 30 1 17 29
M  V30 31 1 18 30
M  V30 END BOND
M  V30 END CTAB
M  END
>  <Molecule Name>
QNNXJIYSLIKTDV-YAQRNVERNA-N

>  <hs_clash>
0.0

>  <hs_total>
134.64203211317468

>  <Total Molweight>
260.320

>  <cLogP>
1.4925

>  <H-Acceptors>
5

>  <H-Donors>
2

>  <Polar Surface Area>
109.14

>  <Non-H Atoms>
18

>  <sp3-Atoms>
1

$$$$
MVVLOKWZBCMJJG-BUKGPZPNNA-N
Actelion Java MolfileCreator 2.0

  0  0  0  0  0  0              0 V3000
M  V30 BEGIN CTAB
M  V30 COUNTS 42 44 0 0 0
M  V30 BEGIN ATOM
M  V30 1 S 33.1433 10.57 64.7566 0
M  V30 2 O 33.4789 11.335 65.9496 0
M  V30 3 O 33.9633 10.1085 63.6441 0
M  V30 4 N 32.4614 11.7609 63.9462 0
M  V30 5 C 32.0382 9.2624 65.0536 0
M  V30 6 C 31.0537 8.9619 64.1012 0
M  V30 7 C 32.1966 8.5464 66.2478 0
M  V30 8 C 30.1907 7.8928 64.3429 0
M  V30 9 C 31.3466 7.4856 66.5034 0
M  V30 10 C 30.363 7.1731 65.5462 0
M  V30 11 N 29.5627 6.0713 65.8935 0
M  V30 12 C 28.5173 5.526 65.1576 0
M  V30 13 S 27.5132 6.2256 64.0336 0
M  V30 14 N 28.249 4.1942 65.3729 0
M  V30 15 C 26.6772 4.8492 63.7316 0
M  V30 16 C 27.1445 3.7668 64.5301 0
M  V30 17 C 25.5542 4.6234 62.7563 0
M  V30 18 N 26.6401 2.4672 64.5047 0
M  V30 19 O 25.0326 3.4976 62.6649 0
M  V30 20 C 25.1294 5.771 61.8967 0
M  V30 21 C 23.7971 6.2776 61.9144 0
M  V30 22 C 26.1338 6.3386 61.0544 0
M  V30 23 C 23.5056 7.3713 61.0692 0
M  V30 24 C 22.7028 5.6836 62.8107 0
M  V30 25 C 25.8092 7.4393 60.2133 0
M  V30 26 C 24.4891 7.9419 60.239 0
M  V30 27 H 31.5422 11.9256 64.3048 0
M  V30 28 H 32.4021 11.5154 62.9789 0
M  V30 29 H 30.965 9.5471 63.1979 0
M  V30 30 H 32.9666 8.8175 66.9547 0
M  V30 31 H 29.4192 7.6255 63.6364 0
M  V30 32 H 31.4351 6.9119 67.4141 0
M  V30 33 H 30.0624 5.3836 66.4201 0
M  V30 34 H 26.7638 2.0436 65.402 0
M  V30 35 H 25.6659 2.4916 64.2799 0
M  V30 36 H 27.135 5.9342 61.0563 0
M  V30 37 H 22.5055 7.7791 61.0598 0
M  V30 38 H 23.0057 5.7674 63.8648 0
M  V30 39 H 21.7628 6.2336 62.655 0
M  V30 40 H 22.5545 4.6243 62.5549 0
M  V30 41 H 26.5552 7.8807 59.5694 0
M  V30 42 H 24.2293 8.7802 59.6097 0
M  V30 END ATOM
M  V30 BEGIN BOND
M  V30 1 2 1 2
M  V30 2 2 1 3
M  V30 3 1 1 4
M  V30 4 1 1 5
M  V30 5 2 5 6
M  V30 6 1 5 7
M  V30 7 1 6 8
M  V30 8 2 7 9
M  V30 9 2 8 10
M  V30 10 1 10 11
M  V30 11 1 11 12
M  V30 12 1 12 13
M  V30 13 2 12 14
M  V30 14 1 13 15
M  V30 15 1 14 16
M  V30 16 1 15 17
M  V30 17 1 16 18
M  V30 18 2 17 19
M  V30 19 1 17 20
M  V30 20 2 20 21
M  V30 21 1 20 22
M  V30 22 1 21 23
M  V30 23 1 21 24
M  V30 24 2 22 25
M  V30 25 2 23 26
M  V30 26 1 9 10
M  V30 27 2 15 16
M  V30 28 1 25 26
M  V30 29 1 4 27
M  V30 30 1 4 28
M  V30 31 1 6 29
M  V30 32 1 7 30
M  V30 33 1 8 31
M  V30 34 1 9 32
M  V30 35 1 11 33
M  V30 36 1 18 34
M  V30 37 1 18 35
M  V30 38 1 22 36
M  V30 39 1 23 37
M  V30 40 1 24 38
M  V30 41 1 24 39
M  V30 42 1 24 40
M  V30 43 1 25 41
M  V30 44 1 26 42
M  V30 END BOND
M  V30 END CTAB
M  END
>  <Molecule Name>
MVVLOKWZBCMJJG-BUKGPZPNNA-N

>  <hs_clash>
2.0

>  <hs_total>
134.45426965036808

>  <Total Molweight>
388.471

>  <cLogP>
2.8095

>  <H-Acceptors>
7

>  <H-Donors>
3

>  <Polar Surface Area>
164.79

>  <Non-H Atoms>
26

>  <sp3-Atoms>
2

$$$$
SUFGPCLKXWRBHX-FHGMOFAHNA-N
Actelion Java MolfileCreator 2.0

  0  0  0  0  0  0              0 V3000
M  V30 BEGIN CTAB
M  V30 COUNTS 45 48 0 0 0
M  V30 BEGIN ATOM
M  V30 1 S 33.1785 10.5838 64.7558 0
M  V30 2 O 34.2882 10.1167 63.9524 0
M  V30 3 O 33.668 11.1004 66.0258 0
M  V30 4 N 32.3722 11.7978 63.9084 0
M  V30 5 C 32.0868 9.2006 65.0315 0
M  V30 6 C 32.3055 8.3442 66.1435 0
M  V30 7 C 31.0103 8.9467 64.1346 0
M  V30 8 C 31.4588 7.2368 66.3642 0
M  V30 9 C 30.1576 7.8362 64.3523 0
M  V30 10 C 30.3745 6.9581 65.4779 0
M  V30 11 N 29.6442 5.9147 65.7526 0
M  V30 12 C 28.6637 5.3632 65.0785 0
M  V30 13 S 27.5842 6.1957 64.0036 0
M  V30 14 N 28.4316 4.0761 65.2079 0
M  V30 15 C 26.7389 4.723 63.6817 0
M  V30 16 C 27.3462 3.7002 64.4242 0
M  V30 17 C 25.6293 4.5867 62.8209 0
M  V30 18 N 26.9449 2.4933 64.3962 0
M  V30 19 O 25.0954 3.4945 62.6894 0
M  V30 20 C 25.0954 5.6775 62.1399 0
M  V30 21 C 25.9263 6.5602 61.3665 0
M  V30 22 C 23.6879 5.937 62.2123 0
M  V30 23 C 25.3723 7.6898 60.6816 0
M  V30 24 C 23.122 7.0526 61.5349 0
M  V30 25 C 23.9409 7.9416 60.7685 0
M  V30 26 C 26.1922 8.5787 59.9161 0
M  V30 27 C 23.3898 9.0752 60.0865 0
M  V30 28 C 25.6232 9.6996 59.2457 0
M  V30 29 C 24.227 9.9484 59.3313 0
M  V30 30 H 31.4042 11.7942 64.1599 0
M  V30 31 H 32.4615 11.6351 62.9261 0
M  V30 32 H 33.122 8.5412 66.8223 0
M  V30 33 H 30.844 9.5992 63.2902 0
M  V30 34 H 31.6329 6.5929 67.2134 0
M  V30 35 H 29.3405 7.6455 63.6727 0
M  V30 36 H 30.1656 5.2303 66.2619 0
M  V30 37 H 25.9961 2.4493 64.7095 0
M  V30 38 H 27.5194 1.9368 64.9962 0
M  V30 39 H 26.9868 6.3681 61.301 0
M  V30 40 H 23.0512 5.2801 62.7862 0
M  V30 41 H 22.0588 7.2317 61.6 0
M  V30 42 H 27.2544 8.3977 59.8463 0
M  V30 43 H 22.3292 9.2704 60.1451 0
M  V30 44 H 26.2543 10.3615 58.6714 0
M  V30 45 H 23.799 10.8002 58.8237 0
M  V30 END ATOM
M  V30 BEGIN BOND
M  V30 1 2 1 2
M  V30 2 2 1 3
M  V30 3 1 1 4
M  V30 4 1 1 5
M  V30 5 2 5 6
M  V30 6 1 5 7
M  V30 7 1 6 8
M  V30 8 2 7 9
M  V30 9 2 8 10
M  V30 10 1 10 11
M  V30 11 1 11 12
M  V30 12 1 12 13
M  V30 13 2 12 14
M  V30 14 1 13 15
M  V30 15 1 14 16
M  V30 16 1 15 17
M  V30 17 1 16 18
M  V30 18 2 17 19
M  V30 19 1 17 20
M  V30 20 2 20 21
M  V30 21 1 20 22
M  V30 22 1 21 23
M  V30 23 2 22 24
M  V30 24 1 23 25
M  V30 25 2 23 26
M  V30 26 2 25 27
M  V30 27 1 26 28
M  V30 28 1 27 29
M  V30 29 1 9 10
M  V30 30 2 15 16
M  V30 31 1 24 25
M  V30 32 2 28 29
M  V30 33 1 4 30
M  V30 34 1 4 31
M  V30 35 1 6 32
M  V30 36 1 7 33
M  V30 37 1 8 34
M  V30 38 1 9 35
M  V30 39 1 11 36
M  V30 40 1 18 37
M  V30 41 1 18 38
M  V30 42 1 21 39
M  V30 43 1 22 40
M  V30 44 1 24 41
M  V30 45 1 26 42
M  V30 46 1 27 43
M  V30 47 1 28 44
M  V30 48 1 29 45
M  V30 END BOND
M  V30 END CTAB
M  END
>  <Molecule Name>
SUFGPCLKXWRBHX-FHGMOFAHNA-N

>  <hs_clash>
2.0

>  <hs_total>
134.26128872666305

>  <Total Molweight>
424.504

>  <cLogP>
3.66

>  <H-Acceptors>
7

>  <H-Donors>
3

>  <Polar Surface Area>
164.79

>  <Non-H Atoms>
29

>  <sp3-Atoms>
1

$$$$
YFXWYMXXKFMSOB-NPVYFSBINA-N
Actelion Java MolfileCreator 2.0

  0  0  0  0  0  0              0 V3000
M  V30 BEGIN CTAB
M  V30 COUNTS 37 39 0 0 0
M  V30 BEGIN ATOM
M  V30 1 F 30.9165 12.5357 71.2464 0
M  V30 2 C 30.8858 11.3709 70.5963 0
M  V30 3 F 31.3702 10.4427 71.4025 0
M  V30 4 F 29.626 11.048 70.345 0
M  V30 5 O 31.5994 11.4765 69.4168 0
M  V30 6 C 31.4355 10.5844 68.3597 0
M  V30 7 C 31.1931 11.1162 67.0759 0
M  V30 8 C 31.631 9.1999 68.5876 0
M  V30 9 C 31.1844 10.2455 65.9719 0
M  V30 10 C 31.6063 8.3592 67.4568 0
M  V30 11 C 31.4019 8.8512 66.1749 0
M  V30 12 C 31.44 7.9503 65.0188 0
M  V30 13 C 30.0239 7.432 64.6944 0
M  V30 14 O 29.2424 8.055 64.0012 0
M  V30 15 N 29.7305 6.1997 65.2542 0
M  V30 16 C 28.5669 5.4795 65.0748 0
M  V30 17 N 28.4795 4.1828 65.5296 0
M  V30 18 C 27.3769 5.8177 64.3145 0
M  V30 19 N 27.3244 3.6978 65.0913 0
M  V30 20 C 26.607 4.6327 64.3432 0
M  V30 21 C 25.3073 4.2728 63.7699 0
M  V30 22 C 24.2728 5.3455 63.5588 0
M  V30 23 C 24.9196 4.6692 62.3689 0
M  V30 24 H 31.0172 12.1736 66.9434 0
M  V30 25 H 31.7913 8.8074 69.581 0
M  V30 26 H 31.0139 10.6304 64.9773 0
M  V30 27 H 31.7511 7.2979 67.5919 0
M  V30 28 H 31.8351 8.4947 64.1485 0
M  V30 29 H 32.0953 7.0969 65.2463 0
M  V30 30 H 30.4279 5.7932 65.8443 0
M  V30 31 H 27.1358 6.7565 63.8381 0
M  V30 32 H 27.0046 2.7686 65.2759 0
M  V30 33 H 24.901 3.3051 64.0992 0
M  V30 34 H 23.2175 5.1473 63.7981 0
M  V30 35 H 24.511 6.3936 63.7929 0
M  V30 36 H 24.335 3.9787 61.7432 0
M  V30 37 H 25.6284 5.2252 61.7379 0
M  V30 END ATOM
M  V30 BEGIN BOND
M  V30 1 1 1 2
M  V30 2 1 2 3
M  V30 3 1 2 4
M  V30 4 1 2 5
M  V30 5 1 5 6
M  V30 6 2 6 7
M  V30 7 1 6 8
M  V30 8 1 7 9
M  V30 9 2 8 10
M  V30 10 2 9 11
M  V30 11 1 11 12
M  V30 12 1 12 13
M  V30 13 2 13 14
M  V30 14 1 13 15
M  V30 15 1 15 16
M  V30 16 2 16 17
M  V30 17 1 16 18
M  V30 18 1 17 19
M  V30 19 2 18 20
M  V30 20 1 20 21
M  V30 21 1 21 22
M  V30 22 1 21 23
M  V30 23 1 10 11
M  V30 24 1 19 20
M  V30 25 1 22 23
M  V30 26 1 7 24
M  V30 27 1 8 25
M  V30 28 1 9 26
M  V30 29 1 10 27
M  V30 30 1 12 28
M  V30 31 1 12 29
M  V30 32 1 15 30
M  V30 33 1 18 31
M  V30 34 1 19 32
M  V30 35 1 21 33
M  V30 36 1 22 34
M  V30 37 1 22 35
M  V30 38 1 23 36
M  V30 39 1 23 37
M  V30 END BOND
M  V30 END CTAB
M  END
>  <Molecule Name>
YFXWYMXXKFMSOB-NPVYFSBINA-N

>  <hs_clash>
15.0

>  <hs_total>
134.0059152022775

>  <Total Molweight>
325.289

>  <cLogP>
3.314

>  <H-Acceptors>
5

>  <H-Donors>
2

>  <Polar Surface Area>
67.01

>  <Non-H Atoms>
23

>  <sp3-Atoms>
6

$$$$
CPRLKIUEXBBIHS-OZBNZTERNA-N
Actelion Java MolfileCreator 2.0

  0  0  0  0  0  0              0 V3000
M  V30 BEGIN CTAB
M  V30 COUNTS 56 58 0 0 0
M  V30 BEGIN ATOM
M  V30 1 S 34.054 11.143 64.1914 0
M  V30 2 O 34.8714 11.9293 65.1193 0
M  V30 3 O 34.8701 10.2868 63.3887 0
M  V30 4 N 33.1491 12.1876 63.2213 0
M  V30 5 C 32.9614 10.1453 65.1154 0
M  V30 6 C 32.7549 10.4228 66.4801 0
M  V30 7 C 32.3003 9.0746 64.4732 0
M  V30 8 C 31.8726 9.617 67.2196 0
M  V30 9 C 31.418 8.2697 65.2146 0
M  V30 10 C 31.2039 8.5448 66.5964 0
M  V30 11 C 30.261 7.7303 67.4412 0
M  V30 12 N 29.6129 6.6105 66.7359 0
M  V30 13 C 28.5268 6.7501 65.8775 0
M  V30 14 O 28.0542 7.8592 65.6558 0
M  V30 15 C 27.9997 5.6131 65.3262 0
M  V30 16 N 28.3499 4.3734 65.7494 0
M  V30 17 C 27.031 5.5394 64.2791 0
M  V30 18 N 27.6075 3.5318 64.9934 0
M  V30 19 C 26.8088 4.1783 64.1122 0
M  V30 20 C 26.311 6.5858 63.4634 0
M  V30 21 C 25.8674 3.5266 63.1494 0
M  V30 22 C 25.6395 5.9361 62.1948 0 CFG=2
M  V30 23 C 24.911 4.5792 62.5119 0
M  V30 24 C 24.6445 6.9551 61.5348 0
M  V30 25 C 25.4134 8.196 61.0774 0
M  V30 26 C 23.5456 7.4055 62.5052 0
M  V30 27 C 23.9731 6.3035 60.336 0
M  V30 28 C 26.5527 7.8488 60.1078 0
M  V30 29 H 32.2889 12.4091 63.6809 0
M  V30 30 H 32.9544 11.7457 62.346 0
M  V30 31 H 33.2689 11.2463 66.9535 0
M  V30 32 H 32.4706 8.877 63.4252 0
M  V30 33 H 31.7068 9.8199 68.2675 0
M  V30 34 H 30.9048 7.4469 64.7397 0
M  V30 35 H 29.4734 8.3995 67.8181 0
M  V30 36 H 30.8287 7.3188 68.2887 0
M  V30 37 H 29.9768 5.6914 66.8843 0
M  V30 38 H 27.6448 2.5361 65.0772 0
M  V30 39 H 27.0322 7.3504 63.1392 0
M  V30 40 H 25.5328 7.0552 64.0835 0
M  V30 41 H 26.4475 3.0378 62.3533 0
M  V30 42 H 25.2698 2.7733 63.6834 0
M  V30 43 H 26.4362 5.726 61.4663 0
M  V30 44 H 24.5069 4.1679 61.5753 0
M  V30 45 H 24.0855 4.7765 63.2118 0
M  V30 46 H 24.7148 8.8796 60.5731 0
M  V30 47 H 25.8398 8.694 61.961 0
M  V30 48 H 22.8762 8.1161 61.9981 0
M  V30 49 H 22.9676 6.5302 62.8365 0
M  V30 50 H 24.0044 7.8933 63.3779 0
M  V30 51 H 23.2757 7.017 59.8732 0
M  V30 52 H 24.738 6.0099 59.6025 0
M  V30 53 H 23.4197 5.4118 60.6659 0
M  V30 54 H 27.0738 8.7703 59.8086 0
M  V30 55 H 27.2625 7.171 60.604 0
M  V30 56 H 26.1375 7.3567 59.2161 0
M  V30 END ATOM
M  V30 BEGIN BOND
M  V30 1 2 1 2
M  V30 2 2 1 3
M  V30 3 1 1 4
M  V30 4 1 1 5
M  V30 5 2 5 6
M  V30 6 1 5 7
M  V30 7 1 6 8
M  V30 8 2 7 9
M  V30 9 2 8 10
M  V30 10 1 10 11
M  V30 11 1 11 12
M  V30 12 1 12 13
M  V30 13 2 13 14
M  V30 14 1 13 15
M  V30 15 2 15 16
M  V30 16 1 15 17
M  V30 17 1 16 18
M  V30 18 2 17 19
M  V30 19 1 17 20
M  V30 20 1 19 21
M  V30 21 1 20 22
M  V30 22 1 21 23
M  V30 23 1 22 24
M  V30 24 1 24 25
M  V30 25 1 24 26
M  V30 26 1 24 27
M  V30 27 1 25 28
M  V30 28 1 9 10
M  V30 29 1 18 19
M  V30 30 1 22 23
M  V30 31 1 4 29
M  V30 32 1 4 30
M  V30 33 1 6 31
M  V30 34 1 7 32
M  V30 35 1 8 33
M  V30 36 1 9 34
M  V30 37 1 11 35
M  V30 38 1 11 36
M  V30 39 1 12 37
M  V30 40 1 18 38
M  V30 41 1 20 39
M  V30 42 1 20 40
M  V30 43 1 21 41
M  V30 44 1 21 42
M  V30 45 1 22 43
M  V30 46 1 23 44
M  V30 47 1 23 45
M  V30 48 1 25 46
M  V30 49 1 25 47
M  V30 50 1 26 48
M  V30 51 1 26 49
M  V30 52 1 26 50
M  V30 53 1 27 51
M  V30 54 1 27 52
M  V30 55 1 27 53
M  V30 56 1 28 54
M  V30 57 1 28 55
M  V30 58 1 28 56
M  V30 END BOND
M  V30 BEGIN COLLECTION
M  V30 MDLV30/STERAC1 ATOMS=(1 22)
M  V30 END COLLECTION
M  V30 END CTAB
M  END
>  <Molecule Name>
CPRLKIUEXBBIHS-OZBNZTERNA-N

>  <hs_clash>
18.0

>  <hs_total>
133.37064731630514

>  <Total Molweight>
404.533

>  <cLogP>
2.4011

>  <H-Acceptors>
7

>  <H-Donors>
3

>  <Polar Surface Area>
126.32

>  <Non-H Atoms>
28

>  <sp3-Atoms>
11

$$$$
CCDIUVLNHCGSMH-UHFFFAOYNA-N
Actelion Java MolfileCreator 2.0

  0  0  0  0  0  0              0 V3000
M  V30 BEGIN CTAB
M  V30 COUNTS 45 49 0 0 0
M  V30 BEGIN ATOM
M  V30 1 N 27.1485 6.9832 63.0755 0
M  V30 2 C 28.088 7.9345 63.1018 0
M  V30 3 C 27.4076 5.8418 63.7822 0
M  V30 4 C 27.8588 9.1975 62.3536 0
M  V30 5 C 29.3473 7.8676 63.843 0
M  V30 6 N 28.598 5.7052 64.5067 0
M  V30 7 C 26.7062 4.6639 64.0061 0
M  V30 8 C 26.5684 9.4975 61.9352 0
M  V30 9 C 28.9084 10.0719 62.0453 0
M  V30 10 C 29.5796 6.7235 64.5217 0
M  V30 11 N 28.651 4.5024 65.1896 0
M  V30 12 C 27.5171 3.888 64.8528 0
M  V30 13 C 25.3445 4.2307 63.5169 0
M  V30 14 C 26.2999 10.6743 61.2301 0
M  V30 15 C 28.647 11.2439 61.3162 0
M  V30 16 N 30.6965 6.4709 65.2469 0
M  V30 17 C 24.3537 5.2465 63.0399 0
M  V30 18 C 24.9884 4.2852 62.0565 0
M  V30 19 C 27.3386 11.5398 60.9025 0
M  V30 20 C 31.9677 7.1696 65.2479 0
M  V30 21 C 32.0043 8.3159 66.2217 0
M  V30 22 C 31.9869 8.0773 67.5824 0
M  V30 23 C 32.0628 9.6491 65.7952 0
M  V30 24 N 32.0592 9.0567 68.5285 0
M  V30 25 C 32.1343 10.6717 66.7388 0
M  V30 26 C 32.1376 10.3262 68.0805 0
M  V30 27 H 30.051 8.6868 63.8473 0
M  V30 28 H 25.7629 8.8133 62.1573 0
M  V30 29 H 29.9142 9.8461 62.3667 0
M  V30 30 H 27.2496 2.8989 65.1941 0
M  V30 31 H 24.9091 3.3824 64.0655 0
M  V30 32 H 25.2871 10.9116 60.9402 0
M  V30 33 H 29.4541 11.9189 61.0735 0
M  V30 34 H 30.7236 5.5619 65.6622 0
M  V30 35 H 23.2902 5.1434 63.3021 0
M  V30 36 H 24.6243 6.3125 63.0203 0
M  V30 37 H 25.722 4.6511 61.3233 0
M  V30 38 H 24.3877 3.4821 61.6049 0
M  V30 39 H 27.1393 12.4352 60.3326 0
M  V30 40 H 32.7604 6.4559 65.516 0
M  V30 41 H 32.1536 7.5618 64.2372 0
M  V30 42 H 31.9116 7.0533 67.9171 0
M  V30 43 H 32.0528 9.8833 64.7412 0
M  V30 44 H 32.1852 11.7061 66.4328 0
M  V30 45 H 32.2074 11.1198 68.8102 0
M  V30 END ATOM
M  V30 BEGIN BOND
M  V30 1 2 1 2
M  V30 2 1 1 3
M  V30 3 1 2 4
M  V30 4 1 2 5
M  V30 5 1 3 6
M  V30 6 2 3 7
M  V30 7 2 4 8
M  V30 8 1 4 9
M  V30 9 2 5 10
M  V30 10 1 6 11
M  V30 11 1 7 12
M  V30 12 1 7 13
M  V30 13 1 8 14
M  V30 14 2 9 15
M  V30 15 1 10 16
M  V30 16 1 13 17
M  V30 17 1 13 18
M  V30 18 2 14 19
M  V30 19 1 16 20
M  V30 20 1 20 21
M  V30 21 2 21 22
M  V30 22 1 21 23
M  V30 23 1 22 24
M  V30 24 2 23 25
M  V30 25 2 24 26
M  V30 26 1 6 10
M  V30 27 2 11 12
M  V30 28 1 15 19
M  V30 29 1 17 18
M  V30 30 1 25 26
M  V30 31 1 5 27
M  V30 32 1 8 28
M  V30 33 1 9 29
M  V30 34 1 12 30
M  V30 35 1 13 31
M  V30 36 1 14 32
M  V30 37 1 15 33
M  V30 38 1 16 34
M  V30 39 1 17 35
M  V30 40 1 17 36
M  V30 41 1 18 37
M  V30 42 1 18 38
M  V30 43 1 19 39
M  V30 44 1 20 40
M  V30 45 1 20 41
M  V30 46 1 22 42
M  V30 47 1 23 43
M  V30 48 1 25 44
M  V30 49 1 26 45
M  V30 END BOND
M  V30 END CTAB
M  END
>  <Molecule Name>
CCDIUVLNHCGSMH-UHFFFAOYNA-N

>  <hs_clash>
0.0

>  <hs_total>
133.29321576339885

>  <Total Molweight>
341.417

>  <cLogP>
2.8389

>  <H-Acceptors>
5

>  <H-Donors>
1

>  <Polar Surface Area>
55.11

>  <Non-H Atoms>
26

>  <sp3-Atoms>
4

$$$$
CGDCHWZCEONCMK-LILDFLRNNA-N
Actelion Java MolfileCreator 2.0

  0  0  0  0  0  0              0 V3000
M  V30 BEGIN CTAB
M  V30 COUNTS 34 36 0 0 0
M  V30 BEGIN ATOM
M  V30 1 S 27.8533 6.4374 63.9576 0
M  V30 2 C 28.8868 5.495 65.0262 0
M  V30 3 C 26.8909 5.0102 63.6384 0
M  V30 4 N 28.5561 4.2446 65.1643 0
M  V30 5 N 29.9902 5.985 65.6906 0
M  V30 6 C 27.4463 3.9546 64.4007 0
M  V30 7 C 25.7314 4.8996 62.7431 0
M  V30 8 C 30.625 7.2587 65.7494 0
M  V30 9 N 26.9685 2.7202 64.3957 0
M  V30 10 O 25.1283 3.8064 62.6083 0
M  V30 11 C 25.2489 6.08 61.9252 0
M  V30 12 C 31.4799 7.6492 66.8608 0
M  V30 13 C 30.41 8.2075 64.644 0
M  V30 14 C 26.1818 6.8825 61.131 0
M  V30 15 C 23.8426 6.4168 61.9046 0
M  V30 16 C 32.092 8.9759 66.846 0
M  V30 17 C 31.0335 9.5216 64.6604 0
M  V30 18 C 25.7247 7.9903 60.3456 0
M  V30 19 C 23.3836 7.5346 61.1099 0
M  V30 20 F 32.8785 9.3194 67.8885 0
M  V30 21 C 31.8843 9.918 65.7727 0
M  V30 22 C 24.3226 8.3174 60.3342 0
M  V30 23 H 30.4444 5.2958 66.2551 0
M  V30 24 H 27.5276 2.1436 64.9912 0
M  V30 25 H 26.1683 2.6744 63.7977 0
M  V30 26 H 31.6586 6.9705 67.6817 0
M  V30 27 H 29.7824 7.9244 63.812 0
M  V30 28 H 27.2328 6.6351 61.1378 0
M  V30 29 H 23.1377 5.8359 62.4808 0
M  V30 30 H 30.8637 10.2068 63.843 0
M  V30 31 H 26.4252 8.5747 59.7677 0
M  V30 32 H 22.3334 7.7872 61.0954 0
M  V30 33 H 32.3488 10.8928 65.7944 0
M  V30 34 H 23.9694 9.1504 59.7442 0
M  V30 END ATOM
M  V30 BEGIN BOND
M  V30 1 1 1 2
M  V30 2 1 1 3
M  V30 3 2 2 4
M  V30 4 1 2 5
M  V30 5 2 3 6
M  V30 6 1 3 7
M  V30 7 1 5 8
M  V30 8 1 6 9
M  V30 9 2 7 10
M  V30 10 1 7 11
M  V30 11 2 8 12
M  V30 12 1 8 13
M  V30 13 2 11 14
M  V30 14 1 11 15
M  V30 15 1 12 16
M  V30 16 2 13 17
M  V30 17 1 14 18
M  V30 18 2 15 19
M  V30 19 1 16 20
M  V30 20 2 16 21
M  V30 21 2 18 22
M  V30 22 1 4 6
M  V30 23 1 17 21
M  V30 24 1 19 22
M  V30 25 1 5 23
M  V30 26 1 9 24
M  V30 27 1 9 25
M  V30 28 1 12 26
M  V30 29 1 13 27
M  V30 30 1 14 28
M  V30 31 1 15 29
M  V30 32 1 17 30
M  V30 33 1 18 31
M  V30 34 1 19 32
M  V30 35 1 21 33
M  V30 36 1 22 34
M  V30 END BOND
M  V30 END CTAB
M  END
>  <Molecule Name>
CGDCHWZCEONCMK-LILDFLRNNA-N

>  <hs_clash>
0.0

>  <hs_total>
133.11134326914103

>  <Total Molweight>
313.355

>  <cLogP>
3.8024

>  <H-Acceptors>
4

>  <H-Donors>
2

>  <Polar Surface Area>
96.25

>  <Non-H Atoms>
22

>  <sp3-Atoms>
0

$$$$
YGOUPMYBESSSAI-YGPBECBDNA-N
Actelion Java MolfileCreator 2.0

  0  0  0  0  0  0              0 V3000
M  V30 BEGIN CTAB
M  V30 COUNTS 32 33 0 0 0
M  V30 BEGIN ATOM
M  V30 1 O 24.4612 8.7829 62.2652 0
M  V30 2 N 24.6701 7.7257 62.8454 0 CHG=1
M  V30 3 O 23.6162 6.901 63.0293 0 CHG=-1
M  V30 4 C 25.8901 7.4039 63.2786 0
M  V30 5 C 26.1187 6.1682 63.9535 0
M  V30 6 C 27.0111 8.2778 63.0869 0
M  V30 7 C 27.4168 5.7673 64.4395 0
M  V30 8 C 28.2979 7.9295 63.5477 0
M  V30 9 C 28.5552 6.671 64.2369 0
M  V30 10 C 27.533 4.5101 65.0058 0
M  V30 11 N 29.7829 6.3215 64.6508 0
M  V30 12 O 28.4526 4.2744 65.9489 0
M  V30 13 N 26.74 3.4638 64.6349 0
M  V30 14 C 31.0309 7.0937 64.501 0
M  V30 15 C 31.1739 8.2047 65.5137 0
M  V30 16 C 31.1125 7.9388 66.9135 0
M  V30 17 C 31.3738 9.5529 65.0863 0
M  V30 18 N 31.2477 8.9837 67.8146 0
M  V30 19 C 31.508 10.6016 66.0313 0
M  V30 20 C 31.441 10.2926 67.4129 0
M  V30 21 H 25.2822 5.5028 64.1081 0
M  V30 22 H 26.867 9.2207 62.5801 0
M  V30 23 H 29.1163 8.6152 63.3853 0
M  V30 24 H 29.8139 5.5835 65.3249 0
M  V30 25 H 26.8604 2.5686 65.064 0
M  V30 26 H 26.0384 3.5921 63.9341 0
M  V30 27 H 31.8817 6.4065 64.6149 0
M  V30 28 H 31.0484 7.5357 63.494 0
M  V30 29 H 30.9616 6.9303 67.2693 0
M  V30 30 H 31.4231 9.7763 64.031 0
M  V30 31 H 31.6587 11.6197 65.7037 0
M  V30 32 H 31.5408 11.0763 68.1494 0
M  V30 END ATOM
M  V30 BEGIN BOND
M  V30 1 2 1 2
M  V30 2 1 2 3
M  V30 3 1 2 4
M  V30 4 2 4 5
M  V30 5 1 4 6
M  V30 6 1 5 7
M  V30 7 2 6 8
M  V30 8 2 7 9
M  V30 9 1 7 10
M  V30 10 1 9 11
M  V30 11 2 10 12
M  V30 12 1 10 13
M  V30 13 1 11 14
M  V30 14 1 14 15
M  V30 15 2 15 16
M  V30 16 1 15 17
M  V30 17 1 16 18
M  V30 18 2 17 19
M  V30 19 2 18 20
M  V30 20 1 8 9
M  V30 21 1 19 20
M  V30 22 1 5 21
M  V30 23 1 6 22
M  V30 24 1 8 23
M  V30 25 1 11 24
M  V30 26 1 13 25
M  V30 27 1 13 26
M  V30 28 1 14 27
M  V30 29 1 14 28
M  V30 30 1 16 29
M  V30 31 1 17 30
M  V30 32 1 19 31
M  V30 33 1 20 32
M  V30 END BOND
M  V30 END CTAB
M  END
>  <Molecule Name>
YGOUPMYBESSSAI-YGPBECBDNA-N

>  <hs_clash>
0.0

>  <hs_total>
132.74485642887313

>  <Total Molweight>
272.263

>  <cLogP>
-0.1105

>  <H-Acceptors>
7

>  <H-Donors>
2

>  <Polar Surface Area>
113.83

>  <Non-H Atoms>
20

>  <sp3-Atoms>
2

$$$$
RXZMYLDMFYNEIM-GNNIPBQYNA-O
Actelion Java MolfileCreator 2.0

  0  0  0  0  0  0              0 V3000
M  V30 BEGIN CTAB
M  V30 COUNTS 67 71 0 0 0
M  V30 BEGIN ATOM
M  V30 1 O 21.4498 6.7257 62.2227 0
M  V30 2 C 22.3608 7.4328 61.8746 0
M  V30 3 N 22.3184 8.3561 60.9084 0
M  V30 4 C 23.6316 7.2738 62.574 0
M  V30 5 C 21.199 8.7318 60.0606 0
M  V30 6 N 24.5037 8.2549 62.6969 0
M  V30 7 C 24.1579 6.0476 63.2405 0
M  V30 8 N 25.5955 7.7977 63.3951 0
M  V30 9 C 25.4632 6.5267 63.7501 0
M  V30 10 C 23.6748 4.6058 63.4909 0
M  V30 11 C 26.6408 8.8303 63.5911 0
M  V30 12 C 26.3987 5.6352 64.4786 0
M  V30 13 C 24.7893 3.6651 63.9741 0
M  V30 14 C 23.0126 3.9696 62.2711 0
M  V30 15 C 22.6602 4.708 64.5965 0
M  V30 16 N 27.5515 6.1233 65.0084 0
M  V30 17 C 26.0644 4.27 64.5917 0
M  V30 18 C 28.438 5.3451 65.6686 0
M  V30 19 C 26.9915 3.4683 65.286 0
M  V30 20 N 28.1364 4.0103 65.8123 0
M  V30 21 N 29.5921 5.8491 66.1678 0
M  V30 22 C 30.1157 7.1278 66.1188 0
M  V30 23 C 29.9867 7.9717 64.9638 0
M  V30 24 C 30.8307 7.6143 67.251 0
M  V30 25 C 30.5443 9.2528 64.9292 0
M  V30 26 C 31.4006 8.9063 67.2263 0
M  V30 27 C 31.2581 9.7346 66.0567 0
M  V30 28 N 31.8357 11.0136 66.0384 0
M  V30 29 C 32.7147 11.4234 64.9348 0
M  V30 30 C 31.5459 11.8793 67.2099 0
M  V30 31 C 32.0376 12.6915 64.4306 0
M  V30 32 C 30.9292 13.1654 66.6615 0
M  V30 33 N 31.8945 13.5259 65.6309 0 CHG=1
M  V30 34 C 32.7318 14.703 65.8229 0
M  V30 35 H 23.1703 8.8546 60.7474 0
M  V30 36 H 21.5122 9.5289 59.3705 0
M  V30 37 H 20.8666 7.8567 59.4832 0
M  V30 38 H 20.3701 9.0941 60.6869 0
M  V30 39 H 26.3177 9.7731 63.1251 0
M  V30 40 H 26.8013 8.99 64.6677 0
M  V30 41 H 27.5793 8.4945 63.1263 0
M  V30 42 H 25.1042 3.067 63.1065 0
M  V30 43 H 24.3461 3.0044 64.7338 0
M  V30 44 H 22.6932 2.9466 62.5185 0
M  V30 45 H 22.1362 4.5661 61.9771 0
M  V30 46 H 23.731 3.9385 61.4388 0
M  V30 47 H 22.2691 3.7068 64.8299 0
M  V30 48 H 23.1358 5.1338 65.4926 0
M  V30 49 H 21.833 5.359 64.2764 0
M  V30 50 H 26.798 2.4126 65.4056 0
M  V30 51 H 30.0193 5.2656 66.8586 0
M  V30 52 H 29.4462 7.6079 64.1026 0
M  V30 53 H 30.9368 6.9944 68.1293 0
M  V30 54 H 30.4327 9.8714 64.0509 0
M  V30 55 H 31.9434 9.2737 68.0848 0
M  V30 56 H 33.7332 11.6321 65.2939 0
M  V30 57 H 32.7528 10.6538 64.1499 0
M  V30 58 H 30.8382 11.3778 67.8867 0
M  V30 59 H 32.4749 12.1059 67.7534 0
M  V30 60 H 32.6623 13.1945 63.6781 0
M  V30 61 H 31.0535 12.4618 63.9961 0
M  V30 62 H 30.8591 13.9419 67.4376 0
M  V30 63 H 29.9319 12.9838 66.2339 0
M  V30 64 H 31.2042 14.0838 65.1696 0
M  V30 65 H 32.4715 15.1876 66.7758 0
M  V30 66 H 33.7893 14.4012 65.8421 0
M  V30 67 H 32.5669 15.4091 64.9958 0
M  V30 END ATOM
M  V30 BEGIN BOND
M  V30 1 2 1 2
M  V30 2 1 2 3
M  V30 3 1 2 4
M  V30 4 1 3 5
M  V30 5 2 4 6
M  V30 6 1 4 7
M  V30 7 1 6 8
M  V30 8 2 7 9
M  V30 9 1 7 10
M  V30 10 1 8 11
M  V30 11 1 9 12
M  V30 12 1 10 13
M  V30 13 1 10 14
M  V30 14 1 10 15
M  V30 15 2 12 16
M  V30 16 1 12 17
M  V30 17 1 16 18
M  V30 18 2 17 19
M  V30 19 2 18 20
M  V30 20 1 18 21
M  V30 21 1 21 22
M  V30 22 2 22 23
M  V30 23 1 22 24
M  V30 24 1 23 25
M  V30 25 2 24 26
M  V30 26 2 25 27
M  V30 27 1 27 28
M  V30 28 1 28 29
M  V30 29 1 28 30
M  V30 30 1 29 31
M  V30 31 1 30 32
M  V30 32 1 31 33
M  V30 33 1 33 34
M  V30 34 1 8 9
M  V30 35 1 13 17
M  V30 36 1 19 20
M  V30 37 1 26 27
M  V30 38 1 32 33
M  V30 39 1 3 35
M  V30 40 1 5 36
M  V30 41 1 5 37
M  V30 42 1 5 38
M  V30 43 1 11 39
M  V30 44 1 11 40
M  V30 45 1 11 41
M  V30 46 1 13 42
M  V30 47 1 13 43
M  V30 48 1 14 44
M  V30 49 1 14 45
M  V30 50 1 14 46
M  V30 51 1 15 47
M  V30 52 1 15 48
M  V30 53 1 15 49
M  V30 54 1 19 50
M  V30 55 1 21 51
M  V30 56 1 23 52
M  V30 57 1 24 53
M  V30 58 1 25 54
M  V30 59 1 26 55
M  V30 60 1 29 56
M  V30 61 1 29 57
M  V30 62 1 30 58
M  V30 63 1 30 59
M  V30 64 1 31 60
M  V30 65 1 31 61
M  V30 66 1 32 62
M  V30 67 1 32 63
M  V30 68 1 33 64
M  V30 69 1 34 65
M  V30 70 1 34 66
M  V30 71 1 34 67
M  V30 END BOND
M  V30 END CTAB
M  END
>  <Molecule Name>
RXZMYLDMFYNEIM-GNNIPBQYNA-O

>  <hs_clash>
3.0

>  <hs_total>
131.97244887101988

>  <Total Molweight>
461.592

>  <cLogP>
-0.0149

>  <H-Acceptors>
9

>  <H-Donors>
3

>  <Polar Surface Area>
92.41

>  <Non-H Atoms>
34

>  <sp3-Atoms>
12

$$$$
UJHTWFHWKSDNFF-YAQRNVERNA-N
Actelion Java MolfileCreator 2.0

  0  0  0  0  0  0              0 V3000
M  V30 BEGIN CTAB
M  V30 COUNTS 30 31 0 0 0
M  V30 BEGIN ATOM
M  V30 1 S 28.0517 6.3289 64.1565 0
M  V30 2 C 28.8692 5.3152 65.2737 0
M  V30 3 C 27.1533 4.9667 63.6108 0
M  V30 4 N 28.4858 4.0211 65.2477 0
M  V30 5 N 29.8469 5.7498 66.1404 0
M  V30 6 C 27.5261 3.8121 64.3245 0
M  V30 7 C 26.2208 5.0635 62.5979 0
M  V30 8 C 30.2883 7.1397 66.1704 0
M  V30 9 N 27.0154 2.5739 64.1429 0
M  V30 10 O 25.5443 3.9603 62.1763 0
M  V30 11 C 25.9227 6.3602 61.892 0
M  V30 12 C 31.2334 7.4495 65.0291 0
M  V30 13 N 26.2039 7.621 62.4958 0
M  V30 14 C 25.3538 6.3603 60.5822 0
M  V30 15 C 30.9232 8.5092 64.0489 0
M  V30 16 C 25.9246 8.8383 61.812 0
M  V30 17 C 25.0885 7.6007 59.9317 0
M  V30 18 C 25.3743 8.7997 60.5484 0
M  V30 19 H 30.4329 5.0626 66.569 0
M  V30 20 H 29.4084 7.7955 66.0932 0
M  V30 21 H 30.8046 7.3297 67.123 0
M  V30 22 H 27.4585 1.9347 64.7714 0
M  V30 23 H 26.3198 2.6018 63.4249 0
M  V30 24 H 32.1494 6.8862 64.9305 0
M  V30 25 H 25.1258 5.4273 60.0882 0
M  V30 26 H 31.61 8.7156 63.2414 0
M  V30 27 H 30.0095 9.078 64.1394 0
M  V30 28 H 26.1425 9.7867 62.2807 0
M  V30 29 H 24.6574 7.6009 58.9415 0
M  V30 30 H 25.1635 9.7252 60.0328 0
M  V30 END ATOM
M  V30 BEGIN BOND
M  V30 1 1 1 2
M  V30 2 1 1 3
M  V30 3 2 2 4
M  V30 4 1 2 5
M  V30 5 2 3 6
M  V30 6 1 3 7
M  V30 7 1 5 8
M  V30 8 1 6 9
M  V30 9 2 7 10
M  V30 10 1 7 11
M  V30 11 1 8 12
M  V30 12 2 11 13
M  V30 13 1 11 14
M  V30 14 2 12 15
M  V30 15 1 13 16
M  V30 16 2 14 17
M  V30 17 2 16 18
M  V30 18 1 4 6
M  V30 19 1 17 18
M  V30 20 1 5 19
M  V30 21 1 8 20
M  V30 22 1 8 21
M  V30 23 1 9 22
M  V30 24 1 9 23
M  V30 25 1 12 24
M  V30 26 1 14 25
M  V30 27 1 15 26
M  V30 28 1 15 27
M  V30 29 1 16 28
M  V30 30 1 17 29
M  V30 31 1 18 30
M  V30 END BOND
M  V30 END CTAB
M  END
>  <Molecule Name>
UJHTWFHWKSDNFF-YAQRNVERNA-N

>  <hs_clash>
0.0

>  <hs_total>
131.4466276065615

>  <Total Molweight>
260.320

>  <cLogP>
1.5465

>  <H-Acceptors>
5

>  <H-Donors>
2

>  <Polar Surface Area>
109.14

>  <Non-H Atoms>
18

>  <sp3-Atoms>
1

$$$$
PXLNCBTUYNESDD-KGCNKATMNA-N
Actelion Java MolfileCreator 2.0

  0  0  0  0  0  0              0 V3000
M  V30 BEGIN CTAB
M  V30 COUNTS 26 27 0 0 0
M  V30 BEGIN ATOM
M  V30 1 Br 34.741 10.6011 67.1922 0
M  V30 2 C 33.2527 9.6246 66.5879 0
M  V30 3 C 32.912 9.7189 65.2311 0
M  V30 4 C 32.4979 8.7959 67.4465 0
M  V30 5 C 31.8088 9.0024 64.7471 0
M  V30 6 C 31.3989 8.0907 66.9376 0
M  V30 7 C 31.0365 8.1553 65.5897 0
M  V30 8 C 29.9073 7.4333 65.0947 0
M  V30 9 O 29.2199 7.9376 64.2094 0
M  V30 10 N 29.6147 6.2147 65.6196 0
M  V30 11 C 28.5855 5.4014 65.2224 0
M  V30 12 N 28.5776 4.1335 65.6162 0
M  V30 13 C 27.4905 5.6181 64.4403 0
M  V30 14 N 27.5025 3.5701 65.0743 0
M  V30 15 C 26.8032 4.4431 64.3778 0
M  V30 16 C 25.4899 4.1051 63.6547 0
M  V30 17 H 33.4943 10.3383 64.5651 0
M  V30 18 H 32.7654 8.7063 68.4889 0
M  V30 19 H 31.5373 9.0963 63.7062 0
M  V30 20 H 30.8137 7.4783 67.6081 0
M  V30 21 H 30.2004 5.8831 66.3591 0
M  V30 22 H 27.2184 6.5466 63.9604 0
M  V30 23 H 27.2559 2.6071 65.1819 0
M  V30 24 H 25.6095 4.2803 62.5755 0
M  V30 25 H 25.2367 3.0492 63.829 0
M  V30 26 H 24.6828 4.7444 64.0425 0
M  V30 END ATOM
M  V30 BEGIN BOND
M  V30 1 1 1 2
M  V30 2 2 2 3
M  V30 3 1 2 4
M  V30 4 1 3 5
M  V30 5 2 4 6
M  V30 6 2 5 7
M  V30 7 1 7 8
M  V30 8 2 8 9
M  V30 9 1 8 10
M  V30 10 1 10 11
M  V30 11 2 11 12
M  V30 12 1 11 13
M  V30 13 1 12 14
M  V30 14 2 13 15
M  V30 15 1 15 16
M  V30 16 1 6 7
M  V30 17 1 14 15
M  V30 18 1 3 17
M  V30 19 1 4 18
M  V30 20 1 5 19
M  V30 21 1 6 20
M  V30 22 1 10 21
M  V30 23 1 13 22
M  V30 24 1 14 23
M  V30 25 1 16 24
M  V30 26 1 16 25
M  V30 27 1 16 26
M  V30 END BOND
M  V30 END CTAB
M  END
>  <Molecule Name>
PXLNCBTUYNESDD-KGCNKATMNA-N

>  <hs_clash>
0.0

>  <hs_total>
131.03892692768463

>  <Total Molweight>
280.124

>  <cLogP>
2.1752

>  <H-Acceptors>
4

>  <H-Donors>
2

>  <Polar Surface Area>
57.78

>  <Non-H Atoms>
16

>  <sp3-Atoms>
1

$$$$
YLGMTQLIVBAYHU-CMIURBJDNA-N
Actelion Java MolfileCreator 2.0

  0  0  0  0  0  0              0 V3000
M  V30 BEGIN CTAB
M  V30 COUNTS 25 26 0 0 0
M  V30 BEGIN ATOM
M  V30 1 O 22.8094 3.9582 61.0316 0
M  V30 2 C 23.834 4.6052 61.6527 0
M  V30 3 C 24.6202 3.9867 62.6209 0
M  V30 4 C 24.0928 5.9067 61.262 0
M  V30 5 C 25.6725 4.6354 63.2489 0
M  V30 6 C 25.1453 6.5603 61.8672 0
M  V30 7 C 25.9175 5.9431 62.8433 0
M  V30 8 N 26.8321 6.7742 63.3024 0
M  V30 9 N 27.7679 6.6823 64.0898 0
M  V30 10 C 28.3434 5.7235 64.8131 0
M  V30 11 C 29.4925 6.105 65.4825 0
M  V30 12 C 28.1842 4.3788 65.1552 0
M  V30 13 N 29.9504 5.0645 66.1626 0
M  V30 14 N 30.061 7.3059 65.4652 0
M  V30 15 N 29.2018 4.1031 65.9472 0 CHG=-1
M  V30 16 N 27.3053 3.4548 64.7936 0
M  V30 17 H 22.1321 4.5839 60.8028 0
M  V30 18 H 24.4021 2.9645 62.8928 0
M  V30 19 H 23.491 6.394 60.5091 0
M  V30 20 H 26.268 4.1526 64.0099 0
M  V30 21 H 25.3746 7.575 61.576 0
M  V30 22 H 30.0909 7.6747 66.3945 0
M  V30 23 H 30.9913 7.2296 65.1072 0
M  V30 24 H 27.517 2.5937 65.2558 0
M  V30 25 H 27.3495 3.3211 63.8036 0
M  V30 END ATOM
M  V30 BEGIN BOND
M  V30 1 1 1 2
M  V30 2 2 2 3
M  V30 3 1 2 4
M  V30 4 1 3 5
M  V30 5 2 4 6
M  V30 6 2 5 7
M  V30 7 1 7 8
M  V30 8 2 8 9
M  V30 9 1 9 10
M  V30 10 1 10 11
M  V30 11 2 10 12
M  V30 12 2 11 13
M  V30 13 1 11 14
M  V30 14 1 12 15
M  V30 15 1 12 16
M  V30 16 1 6 7
M  V30 17 1 13 15
M  V30 18 1 1 17
M  V30 19 1 3 18
M  V30 20 1 4 19
M  V30 21 1 5 20
M  V30 22 1 6 21
M  V30 23 1 14 22
M  V30 24 1 14 23
M  V30 25 1 16 24
M  V30 26 1 16 25
M  V30 END BOND
M  V30 END CTAB
M  END
>  <Molecule Name>
YLGMTQLIVBAYHU-CMIURBJDNA-N

>  <hs_clash>
0.0

>  <hs_total>
131.02328581786773

>  <Total Molweight>
217.211

>  <cLogP>
0.8544

>  <H-Acceptors>
7

>  <H-Donors>
3

>  <Polar Surface Area>
109.88

>  <Non-H Atoms>
16

>  <sp3-Atoms>
1

$$$$
HQPVGVSQPQVZLD-MRSUPTMINA-N
Actelion Java MolfileCreator 2.0

  0  0  0  0  0  0              0 V3000
M  V30 BEGIN CTAB
M  V30 COUNTS 45 48 0 0 0
M  V30 BEGIN ATOM
M  V30 1 F 26.63 6.8955 59.8304 0
M  V30 2 C 26.366 8.101 60.31 0
M  V30 3 C 26.4792 8.3695 61.6714 0
M  V30 4 C 25.9435 9.0803 59.4059 0
M  V30 5 C 26.1791 9.6571 62.1155 0
M  V30 6 C 26.9111 7.2834 62.5811 0
M  V30 7 C 25.6543 10.369 59.86 0
M  V30 8 F 26.2712 9.9817 63.416 0
M  V30 9 C 25.7745 10.6593 61.2186 0
M  V30 10 N 26.1404 6.2589 62.7454 0
M  V30 11 C 28.2494 7.4565 63.2196 0
M  V30 12 C 26.5977 5.2674 63.5848 0
M  V30 13 C 28.6962 6.4494 64.006 0
M  V30 14 N 27.8316 5.346 64.2205 0
M  V30 15 C 26.0364 4.0625 63.9604 0
M  V30 16 N 29.9386 6.4032 64.6217 0
M  V30 17 N 28.0848 4.2311 64.9946 0
M  V30 18 C 27.0058 3.4643 64.8157 0
M  V30 19 C 24.721 3.5162 63.5425 0
M  V30 20 C 31.1366 7.167 64.3372 0
M  V30 21 C 23.5747 4.4569 63.8674 0
M  V30 22 C 31.2277 8.3553 65.2195 0
M  V30 23 C 31.1859 9.6326 64.7161 0
M  V30 24 C 31.2906 8.2734 66.6062 0
M  V30 25 N 31.2326 10.7378 65.483 0
M  V30 26 N 31.3484 9.3413 67.4126 0
M  V30 27 C 31.3051 10.5412 66.8119 0
M  V30 28 N 31.3339 11.638 67.6054 0
M  V30 29 H 25.841 8.8407 58.3581 0
M  V30 30 H 25.34 11.1339 59.1655 0
M  V30 31 H 25.5569 11.6534 61.5805 0
M  V30 32 H 28.837 8.3487 63.0608 0
M  V30 33 H 30.019 5.7469 65.372 0
M  V30 34 H 26.8816 2.4933 65.2715 0
M  V30 35 H 24.7391 3.3433 62.4566 0
M  V30 36 H 24.5531 2.562 64.0633 0
M  V30 37 H 32.0175 6.529 64.4999 0
M  V30 38 H 31.112 7.4979 63.2884 0
M  V30 39 H 22.6261 4.007 63.5388 0
M  V30 40 H 23.5405 4.6322 64.9528 0
M  V30 41 H 23.7265 5.4135 63.3461 0
M  V30 42 H 31.1111 9.7572 63.6462 0
M  V30 43 H 31.2927 7.2929 67.0586 0
M  V30 44 H 31.3878 11.3559 68.5632 0
M  V30 45 H 30.5025 12.1751 67.4633 0
M  V30 END ATOM
M  V30 BEGIN BOND
M  V30 1 1 1 2
M  V30 2 2 2 3
M  V30 3 1 2 4
M  V30 4 1 3 5
M  V30 5 1 3 6
M  V30 6 2 4 7
M  V30 7 1 5 8
M  V30 8 2 5 9
M  V30 9 2 6 10
M  V30 10 1 6 11
M  V30 11 1 10 12
M  V30 12 2 11 13
M  V30 13 1 12 14
M  V30 14 2 12 15
M  V30 15 1 13 16
M  V30 16 1 14 17
M  V30 17 1 15 18
M  V30 18 1 15 19
M  V30 19 1 16 20
M  V30 20 1 19 21
M  V30 21 1 20 22
M  V30 22 2 22 23
M  V30 23 1 22 24
M  V30 24 1 23 25
M  V30 25 2 24 26
M  V30 26 2 25 27
M  V30 27 1 27 28
M  V30 28 1 7 9
M  V30 29 1 13 14
M  V30 30 2 17 18
M  V30 31 1 26 27
M  V30 32 1 4 29
M  V30 33 1 7 30
M  V30 34 1 9 31
M  V30 35 1 11 32
M  V30 36 1 16 33
M  V30 37 1 18 34
M  V30 38 1 19 35
M  V30 39 1 19 36
M  V30 40 1 20 37
M  V30 41 1 20 38
M  V30 42 1 21 39
M  V30 43 1 21 40
M  V30 44 1 21 41
M  V30 45 1 23 42
M  V30 46 1 24 43
M  V30 47 1 28 44
M  V30 48 1 28 45
M  V30 END BOND
M  V30 END CTAB
M  END
>  <Molecule Name>
HQPVGVSQPQVZLD-MRSUPTMINA-N

>  <hs_clash>
0.0

>  <hs_total>
130.64575540459234

>  <Total Molweight>
381.389

>  <cLogP>
1.8191

>  <H-Acceptors>
7

>  <H-Donors>
2

>  <Polar Surface Area>
94.02

>  <Non-H Atoms>
28

>  <sp3-Atoms>
3

$$$$
LXKAYWZVBXYTGU-LILDFLRNNA-N
Actelion Java MolfileCreator 2.0

  0  0  0  0  0  0              0 V3000
M  V30 BEGIN CTAB
M  V30 COUNTS 38 40 0 0 0
M  V30 BEGIN ATOM
M  V30 1 S 28.4192 6.7569 64.024 0
M  V30 2 C 29.2433 5.7424 65.1411 0
M  V30 3 C 27.4589 5.459 63.5512 0
M  V30 4 N 28.7893 4.4676 65.154 0
M  V30 5 N 30.2852 6.1445 65.9764 0
M  V30 6 C 27.7755 4.3047 64.2548 0
M  V30 7 C 26.4092 5.6061 62.4801 0
M  V30 8 C 31.0735 7.3088 65.904 0
M  V30 9 N 27.1534 3.1168 64.0625 0
M  V30 10 O 25.6858 4.5303 62.1457 0
M  V30 11 C 26.1815 6.9171 61.7841 0
M  V30 12 C 30.9339 8.3962 64.8424 0
M  V30 13 C 32.1078 7.4968 66.9342 0
M  V30 14 C 26.0235 8.1932 62.538 0
M  V30 15 C 26.1073 6.947 60.309 0
M  V30 16 C 31.7724 9.5641 64.8391 0
M  V30 17 C 32.9424 8.6725 66.9246 0
M  V30 18 C 25.8024 9.4476 61.8342 0
M  V30 19 C 25.8853 8.1815 59.588 0
M  V30 20 C 32.785 9.7161 65.8841 0
M  V30 21 O 25.6613 10.6303 62.6146 0
M  V30 22 C 25.7322 9.4457 60.3452 0
M  V30 23 C 25.4542 11.8666 62.1406 0
M  V30 24 H 30.7996 5.3657 66.335 0
M  V30 25 H 27.5543 2.4285 64.667 0
M  V30 26 H 26.4458 3.22 63.3636 0
M  V30 27 H 30.1845 8.2856 64.0726 0
M  V30 28 H 32.2423 6.7495 67.7022 0
M  V30 29 H 26.0735 8.1873 63.6168 0
M  V30 30 H 26.2211 6.0263 59.7563 0
M  V30 31 H 31.6563 10.3189 64.0755 0
M  V30 32 H 33.6952 8.7948 67.6893 0
M  V30 33 H 25.832 8.1817 58.5094 0
M  V30 34 H 33.419 10.5905 65.8973 0
M  V30 35 H 25.5684 10.3723 59.8148 0
M  V30 36 H 25.3868 12.5752 62.9794 0
M  V30 37 H 26.2898 12.1527 61.4852 0
M  V30 38 H 24.5152 11.887 61.5676 0
M  V30 END ATOM
M  V30 BEGIN BOND
M  V30 1 1 1 2
M  V30 2 1 1 3
M  V30 3 2 2 4
M  V30 4 1 2 5
M  V30 5 2 3 6
M  V30 6 1 3 7
M  V30 7 1 5 8
M  V30 8 1 6 9
M  V30 9 2 7 10
M  V30 10 1 7 11
M  V30 11 2 8 12
M  V30 12 1 8 13
M  V30 13 2 11 14
M  V30 14 1 11 15
M  V30 15 1 12 16
M  V30 16 2 13 17
M  V30 17 1 14 18
M  V30 18 2 15 19
M  V30 19 2 16 20
M  V30 20 1 18 21
M  V30 21 2 18 22
M  V30 22 1 21 23
M  V30 23 1 4 6
M  V30 24 1 17 20
M  V30 25 1 19 22
M  V30 26 1 5 24
M  V30 27 1 9 25
M  V30 28 1 9 26
M  V30 29 1 12 27
M  V30 30 1 13 28
M  V30 31 1 14 29
M  V30 32 1 15 30
M  V30 33 1 16 31
M  V30 34 1 17 32
M  V30 35 1 19 33
M  V30 36 1 20 34
M  V30 37 1 22 35
M  V30 38 1 23 36
M  V30 39 1 23 37
M  V30 40 1 23 38
M  V30 END BOND
M  V30 END CTAB
M  END
>  <Molecule Name>
LXKAYWZVBXYTGU-LILDFLRNNA-N

>  <hs_clash>
0.0

>  <hs_total>
130.28942963753695

>  <Total Molweight>
325.391

>  <cLogP>
3.6316

>  <H-Acceptors>
5

>  <H-Donors>
2

>  <Polar Surface Area>
105.48

>  <Non-H Atoms>
23

>  <sp3-Atoms>
2

$$$$
HGEJNHUGVPFHIF-KQEHPHAYNA-N
Actelion Java MolfileCreator 2.0

  0  0  0  0  0  0              0 V3000
M  V30 BEGIN CTAB
M  V30 COUNTS 34 36 0 0 0
M  V30 BEGIN ATOM
M  V30 1 O 29.2489 7.9579 64.1082 0
M  V30 2 C 29.9578 7.418 64.9582 0
M  V30 3 N 29.709 6.2158 65.506 0
M  V30 4 C 31.1749 8.1714 65.4837 0
M  V30 5 C 28.6649 5.4197 65.1567 0
M  V30 6 C 31.8839 9.0076 64.6151 0
M  V30 7 C 31.5751 8.0715 66.8123 0
M  V30 8 N 28.6576 4.1463 65.5456 0
M  V30 9 C 27.548 5.649 64.43 0
M  V30 10 C 32.962 9.7638 65.0836 0
M  V30 11 C 32.6512 8.8166 67.2697 0
M  V30 12 N 27.6422 3.5645 65.0981 0
M  V30 13 C 26.9098 4.46 64.4174 0
M  V30 14 C 33.3708 9.6304 66.4092 0
M  V30 15 C 25.5671 4.0133 63.7907 0
M  V30 16 C 34.5425 10.4327 67.0007 0
M  V30 17 C 25.1783 4.6225 62.4307 0
M  V30 18 C 24.4421 5.0516 63.7119 0
M  V30 19 O 35.518 10.7019 66.295 0
M  V30 20 N 34.4313 10.7929 68.2701 0
M  V30 21 H 30.3321 5.887 66.2156 0
M  V30 22 H 31.5961 9.0694 63.5759 0
M  V30 23 H 31.0474 7.4136 67.4873 0
M  V30 24 H 27.2371 6.5733 63.9656 0
M  V30 25 H 33.475 10.4469 64.4229 0
M  V30 26 H 32.9325 8.7623 68.3113 0
M  V30 27 H 27.4163 2.5989 65.2259 0
M  V30 28 H 25.2665 2.97 63.9675 0
M  V30 29 H 24.6623 4.0072 61.679 0
M  V30 30 H 25.8596 5.3234 61.9262 0
M  V30 31 H 24.5957 6.0608 64.1223 0
M  V30 32 H 23.3983 4.7447 63.8751 0
M  V30 33 H 35.1641 11.3135 68.7084 0
M  V30 34 H 33.6143 10.5445 68.7908 0
M  V30 END ATOM
M  V30 BEGIN BOND
M  V30 1 2 1 2
M  V30 2 1 2 3
M  V30 3 1 2 4
M  V30 4 1 3 5
M  V30 5 2 4 6
M  V30 6 1 4 7
M  V30 7 2 5 8
M  V30 8 1 5 9
M  V30 9 1 6 10
M  V30 10 2 7 11
M  V30 11 1 8 12
M  V30 12 2 9 13
M  V30 13 2 10 14
M  V30 14 1 13 15
M  V30 15 1 14 16
M  V30 16 1 15 17
M  V30 17 1 15 18
M  V30 18 2 16 19
M  V30 19 1 16 20
M  V30 20 1 11 14
M  V30 21 1 12 13
M  V30 22 1 17 18
M  V30 23 1 3 21
M  V30 24 1 6 22
M  V30 25 1 7 23
M  V30 26 1 9 24
M  V30 27 1 10 25
M  V30 28 1 11 26
M  V30 29 1 12 27
M  V30 30 1 15 28
M  V30 31 1 17 29
M  V30 32 1 17 30
M  V30 33 1 18 31
M  V30 34 1 18 32
M  V30 35 1 20 33
M  V30 36 1 20 34
M  V30 END BOND
M  V30 END CTAB
M  END
>  <Molecule Name>
HGEJNHUGVPFHIF-KQEHPHAYNA-N

>  <hs_clash>
0.0

>  <hs_total>
130.13647728335292

>  <Total Molweight>
270.291

>  <cLogP>
1.3042

>  <H-Acceptors>
6

>  <H-Donors>
3

>  <Polar Surface Area>
100.87

>  <Non-H Atoms>
20

>  <sp3-Atoms>
3

$$$$
NVVKOBSVOCFOEN-IACNKJBUNA-M
Actelion Java MolfileCreator 2.0

  0  0  0  0  0  0              0 V3000
M  V30 BEGIN CTAB
M  V30 COUNTS 29 30 0 0 0
M  V30 BEGIN ATOM
M  V30 1 S 33.4619 10.742 64.6519 0
M  V30 2 O 33.065 11.8652 63.8471 0
M  V30 3 O 34.5534 10.1643 63.8198 0
M  V30 4 N 33.9137 11.2118 66.1187 0
M  V30 5 C 32.1985 9.5141 64.7903 0
M  V30 6 C 31.1257 9.4928 63.8522 0
M  V30 7 C 32.2889 8.5755 65.8241 0
M  V30 8 C 30.1778 8.547 63.9612 0
M  V30 9 C 31.3282 7.6206 65.9469 0
M  V30 10 C 30.2621 7.6044 65.0128 0
M  V30 11 N 29.208 6.5895 65.1296 0
M  V30 12 N 28.3037 6.6262 64.306 0
M  V30 13 C 27.4176 5.5287 63.9857 0
M  V30 14 C 27.4893 4.2398 64.5987 0
M  V30 15 C 26.4338 5.7734 62.9903 0
M  V30 16 O 28.3251 3.9686 65.4582 0 CHG=-1
M  V30 17 N 26.6483 3.2849 64.2194 0
M  V30 18 C 25.5643 4.7432 62.6405 0
M  V30 19 C 25.6846 3.5016 63.2621 0
M  V30 20 O 24.8489 2.4948 62.9185 0
M  V30 21 H 34.2164 12.1645 66.0857 0
M  V30 22 H 33.1408 11.1301 66.7484 0
M  V30 23 H 31.0749 10.2286 63.0633 0
M  V30 24 H 33.1148 8.6093 66.5193 0
M  V30 25 H 29.3618 8.5069 63.2549 0
M  V30 26 H 31.3765 6.8895 66.7403 0
M  V30 27 H 26.3612 6.7402 62.5144 0
M  V30 28 H 26.7177 2.3815 64.6422 0
M  V30 29 H 24.8022 4.9055 61.8926 0
M  V30 END ATOM
M  V30 BEGIN BOND
M  V30 1 2 1 2
M  V30 2 2 1 3
M  V30 3 1 1 4
M  V30 4 1 1 5
M  V30 5 2 5 6
M  V30 6 1 5 7
M  V30 7 1 6 8
M  V30 8 2 7 9
M  V30 9 2 8 10
M  V30 10 1 10 11
M  V30 11 2 11 12
M  V30 12 1 12 13
M  V30 13 2 13 14
M  V30 14 1 13 15
M  V30 15 1 14 16
M  V30 16 1 14 17
M  V30 17 2 15 18
M  V30 18 1 17 19
M  V30 19 2 19 20
M  V30 20 1 9 10
M  V30 21 1 18 19
M  V30 22 1 4 21
M  V30 23 1 4 22
M  V30 24 1 6 23
M  V30 25 1 7 24
M  V30 26 1 8 25
M  V30 27 1 9 26
M  V30 28 1 15 27
M  V30 29 1 17 28
M  V30 30 1 18 29
M  V30 END BOND
M  V30 END CTAB
M  END
>  <Molecule Name>
NVVKOBSVOCFOEN-IACNKJBUNA-M

>  <hs_clash>
4.0

>  <hs_total>
130.09093721573765

>  <Total Molweight>
293.282

>  <cLogP>
-1.8239

>  <H-Acceptors>
8

>  <H-Donors>
2

>  <Polar Surface Area>
145.42

>  <Non-H Atoms>
20

>  <sp3-Atoms>
2

$$$$
NHOACLCXCKJMAK-GPQMBLKYNA-N
Actelion Java MolfileCreator 2.0

  0  0  0  0  0  0              0 V3000
M  V30 BEGIN CTAB
M  V30 COUNTS 29 32 0 0 0
M  V30 BEGIN ATOM
M  V30 1 N 31.8352 7.893 65.6664 0
M  V30 2 C 30.8562 8.2317 64.7928 0
M  V30 3 C 31.8257 6.6891 66.2816 0
M  V30 4 C 29.8106 7.3468 64.5148 0
M  V30 5 C 30.8012 5.7714 66.0349 0
M  V30 6 C 29.7821 6.1031 65.1436 0
M  V30 7 C 28.6679 5.122 64.8588 0
M  V30 8 N 28.562 3.8864 65.3775 0
M  V30 9 C 27.6228 5.3379 64.0581 0
M  V30 10 N 27.4004 3.4013 64.8184 0
M  V30 11 C 26.9234 4.2832 64.0808 0
M  V30 12 C 27.0767 6.4623 63.1629 0
M  V30 13 C 25.7296 4.3659 63.2259 0
M  V30 14 C 25.7816 5.6324 62.6721 0
M  V30 15 C 24.7168 3.449 62.969 0
M  V30 16 C 24.7856 6.0573 61.7956 0
M  V30 17 C 23.708 3.8648 62.0829 0
M  V30 18 C 23.7428 5.155 61.5048 0
M  V30 19 H 30.884 9.1959 64.3065 0
M  V30 20 H 32.6176 6.4345 66.9705 0
M  V30 21 H 29.0322 7.624 63.8195 0
M  V30 22 H 30.7987 4.8122 66.5312 0
M  V30 23 H 27.0075 2.4958 64.9777 0
M  V30 24 H 26.8164 7.3711 63.7255 0
M  V30 25 H 27.757 6.7236 62.3389 0
M  V30 26 H 24.7058 2.4704 63.4259 0
M  V30 27 H 24.8116 7.0429 61.3549 0
M  V30 28 H 22.8983 3.1923 61.841 0
M  V30 29 H 22.9561 5.4543 60.8282 0
M  V30 END ATOM
M  V30 BEGIN BOND
M  V30 1 2 1 2
M  V30 2 1 1 3
M  V30 3 1 2 4
M  V30 4 2 3 5
M  V30 5 2 4 6
M  V30 6 1 6 7
M  V30 7 2 7 8
M  V30 8 1 7 9
M  V30 9 1 8 10
M  V30 10 2 9 11
M  V30 11 1 9 12
M  V30 12 1 11 13
M  V30 13 1 12 14
M  V30 14 1 13 15
M  V30 15 1 14 16
M  V30 16 2 15 17
M  V30 17 2 16 18
M  V30 18 1 5 6
M  V30 19 1 10 11
M  V30 20 2 13 14
M  V30 21 1 17 18
M  V30 22 1 2 19
M  V30 23 1 3 20
M  V30 24 1 4 21
M  V30 25 1 5 22
M  V30 26 1 10 23
M  V30 27 1 12 24
M  V30 28 1 12 25
M  V30 29 1 15 26
M  V30 30 1 16 27
M  V30 31 1 17 28
M  V30 32 1 18 29
M  V30 END BOND
M  V30 END CTAB
M  END
>  <Molecule Name>
NHOACLCXCKJMAK-GPQMBLKYNA-N

>  <hs_clash>
1.0

>  <hs_total>
129.74557637272798

>  <Total Molweight>
233.273

>  <cLogP>
2.4118

>  <H-Acceptors>
3

>  <H-Donors>
1

>  <Polar Surface Area>
41.57

>  <Non-H Atoms>
18

>  <sp3-Atoms>
1

$$$$
HKSZLNNOFSGOKW-PHTOPLPCNA-O
Actelion Java MolfileCreator 2.0

  0  0  0  0  0  0              0 V3000
M  V30 BEGIN CTAB
M  V30 COUNTS 62 69 0 0 0
M  V30 BEGIN ATOM
M  V30 1 O 28.9278 3.6981 66.0359 0
M  V30 2 C 27.8248 3.9373 65.2839 0
M  V30 3 N 26.8922 3.0298 64.9544 0
M  V30 4 C 27.4695 5.2052 64.6692 0
M  V30 5 C 25.9346 3.5941 64.1871 0
M  V30 6 C 28.1001 6.558 64.6467 0
M  V30 7 C 26.2864 4.9827 63.9843 0
M  V30 8 C 27.4428 7.6209 63.9071 0
M  V30 9 C 29.3763 7.1786 65.2596 0
M  V30 10 C 25.6501 6.0898 63.2398 0
M  V30 11 N 28.2273 8.7747 64.0367 0
M  V30 12 C 26.2539 7.4095 63.2312 0
M  V30 13 C 29.416 8.5644 64.856 0
M  V30 14 C 30.4046 6.6547 66.0713 0
M  V30 15 C 24.4042 6.2011 62.4217 0
M  V30 16 C 27.995 10.1086 63.522 0 CFG=2
M  V30 17 N 25.4984 8.2575 62.4978 0
M  V30 18 C 30.4873 9.4091 65.2758 0
M  V30 19 C 31.4839 7.4993 66.4891 0
M  V30 20 C 24.3207 7.529 61.968 0
M  V30 21 C 23.4386 5.2507 62.0992 0
M  V30 22 O 26.548 10.3174 63.3948 0
M  V30 23 C 28.8323 10.4435 62.2721 0
M  V30 24 C 25.962 9.7041 62.2911 0 CFG=1
M  V30 25 C 31.5196 8.8751 66.0943 0
M  V30 26 C 23.1981 7.8813 61.1468 0
M  V30 27 C 22.3339 5.621 61.294 0
M  V30 28 C 27.9144 10.7956 61.169 0 CFG=2
M  V30 29 C 26.921 9.6901 61.0206 0 CFG=1
M  V30 30 C 24.8176 10.6607 61.9867 0
M  V30 31 C 22.2254 6.9408 60.8323 0
M  V30 32 N 28.7056 10.9586 59.9481 0 CHG=1
M  V30 33 O 27.6191 8.4697 60.8985 0
M  V30 34 C 29.3332 12.2702 59.9097 0
M  V30 35 C 27.2276 7.4956 59.9682 0
M  V30 36 H 26.9046 2.071 65.2375 0
M  V30 37 H 24.9608 3.5257 64.6944 0
M  V30 38 H 25.8801 3.0772 63.2178 0
M  V30 39 H 30.3781 5.6193 66.3769 0
M  V30 40 H 28.3387 10.8066 64.2998 0
M  V30 41 H 30.5132 10.4458 64.9743 0
M  V30 42 H 32.2741 7.0962 67.1048 0
M  V30 43 H 23.5315 4.2375 62.4611 0
M  V30 44 H 29.4954 11.2943 62.4879 0
M  V30 45 H 29.4367 9.5703 61.9868 0
M  V30 46 H 32.3321 9.5083 66.419 0
M  V30 47 H 23.1081 8.8892 60.7692 0
M  V30 48 H 21.5797 4.8919 61.0374 0
M  V30 49 H 27.3899 11.7333 61.4053 0
M  V30 50 H 26.3057 9.8723 60.1272 0
M  V30 51 H 24.2538 10.2936 61.1164 0
M  V30 52 H 24.1485 10.7213 62.8578 0
M  V30 53 H 25.2231 11.6592 61.7659 0
M  V30 54 H 21.3786 7.2285 60.227 0
M  V30 55 H 29.4152 10.2548 59.9214 0
M  V30 56 H 28.1066 10.8586 59.1539 0
M  V30 57 H 29.9208 12.3689 58.9853 0
M  V30 58 H 28.5567 13.0491 59.9354 0
M  V30 59 H 29.9964 12.3851 60.7798 0
M  V30 60 H 27.9016 6.6293 60.0382 0
M  V30 61 H 26.197 7.1765 60.1833 0
M  V30 62 H 27.2765 7.9173 58.9536 0
M  V30 END ATOM
M  V30 BEGIN BOND
M  V30 1 2 1 2
M  V30 2 1 2 3
M  V30 3 1 2 4
M  V30 4 1 3 5
M  V30 5 2 4 6
M  V30 6 1 4 7
M  V30 7 1 6 8
M  V30 8 1 6 9
M  V30 9 2 7 10
M  V30 10 1 8 11
M  V30 11 2 8 12
M  V30 12 2 9 13
M  V30 13 1 9 14
M  V30 14 1 10 15
M  V30 15 1 11 16
M  V30 16 1 12 17
M  V30 17 1 13 18
M  V30 18 2 14 19
M  V30 19 2 15 20
M  V30 20 1 15 21
M  V30 21 1 16 22
M  V30 22 1 16 23
M  V30 23 1 17 24
M  V30 24 2 18 25
M  V30 25 1 20 26
M  V30 26 2 21 27
M  V30 27 1 23 28
M  V30 28 1 24 29
M  V30 29 1 24 30
M  V30 30 2 26 31
M  V30 31 1 28 32
M  V30 32 1 29 33
M  V30 33 1 32 34
M  V30 34 1 33 35
M  V30 35 1 5 7
M  V30 36 1 10 12
M  V30 37 1 11 13
M  V30 38 1 17 20
M  V30 39 1 19 25
M  V30 40 1 22 24
M  V30 41 1 27 31
M  V30 42 1 28 29
M  V30 43 1 3 36
M  V30 44 1 5 37
M  V30 45 1 5 38
M  V30 46 1 14 39
M  V30 47 1 16 40
M  V30 48 1 18 41
M  V30 49 1 19 42
M  V30 50 1 21 43
M  V30 51 1 23 44
M  V30 52 1 23 45
M  V30 53 1 25 46
M  V30 54 1 26 47
M  V30 55 1 27 48
M  V30 56 1 28 49
M  V30 57 1 29 50
M  V30 58 1 30 51
M  V30 59 1 30 52
M  V30 60 1 30 53
M  V30 61 1 31 54
M  V30 62 1 32 55
M  V30 63 1 32 56
M  V30 64 1 34 57
M  V30 65 1 34 58
M  V30 66 1 34 59
M  V30 67 1 35 60
M  V30 68 1 35 61
M  V30 69 1 35 62
M  V30 END BOND
M  V30 BEGIN COLLECTION
M  V30 MDLV30/STERAC1 ATOMS=(4 16 24 28 29)
M  V30 END COLLECTION
M  V30 END CTAB
M  END
>  <Molecule Name>
HKSZLNNOFSGOKW-PHTOPLPCNA-O

>  <hs_clash>
0.0

>  <hs_total>
129.7447252712551

>  <Total Molweight>
467.547

>  <cLogP>
3.2149

>  <H-Acceptors>
7

>  <H-Donors>
2

>  <Polar Surface Area>
74.03

>  <Non-H Atoms>
35

>  <sp3-Atoms>
12

$$$$
ZDFKJVWFYGHALK-HWHDIUAINA-N
Actelion Java MolfileCreator 2.0

  0  0  0  0  0  0              0 V3000
M  V30 BEGIN CTAB
M  V30 COUNTS 38 40 0 0 0
M  V30 BEGIN ATOM
M  V30 1 S 33.2046 10.624 64.7297 0
M  V30 2 O 34.2614 10.1515 63.8875 0
M  V30 3 O 33.7466 11.091 65.9953 0
M  V30 4 N 32.4193 11.891 63.9438 0
M  V30 5 C 32.1142 9.2687 65.0238 0
M  V30 6 C 31.206 8.8461 64.0117 0
M  V30 7 C 32.1677 8.5895 66.2744 0
M  V30 8 C 30.3517 7.7401 64.2458 0
M  V30 9 C 31.3134 7.4836 66.5126 0
M  V30 10 C 30.3951 7.0362 65.5092 0
M  V30 11 N 29.6518 6.0031 65.8019 0
M  V30 12 C 28.6381 5.4979 65.1334 0
M  V30 13 S 27.6449 6.3724 64.0158 0
M  V30 14 N 28.3136 4.2468 65.2969 0
M  V30 15 C 26.7153 4.9514 63.722 0
M  V30 16 C 27.2312 3.9237 64.5106 0
M  V30 17 C 25.6319 4.8363 62.8495 0
M  V30 18 N 26.7487 2.7569 64.5141 0
M  V30 19 O 24.9635 3.7995 62.861 0
M  V30 20 C 25.2938 5.8454 61.9469 0
M  V30 21 C 23.9441 6.168 61.703 0
M  V30 22 C 26.2767 6.5998 61.2219 0
M  V30 23 N 23.544 7.1516 60.825 0
M  V30 24 C 25.8928 7.6177 60.3208 0
M  V30 25 C 24.521 7.8625 60.1532 0
M  V30 26 H 31.4591 11.913 64.223 0
M  V30 27 H 32.4752 11.7563 62.9548 0
M  V30 28 H 31.1683 9.368 63.0668 0
M  V30 29 H 32.8572 8.9162 67.0389 0
M  V30 30 H 29.6639 7.4207 63.4769 0
M  V30 31 H 31.3558 6.9721 67.4629 0
M  V30 32 H 30.1679 5.2971 66.2866 0
M  V30 33 H 25.7932 2.7914 64.807 0
M  V30 34 H 27.2696 2.1823 65.1452 0
M  V30 35 H 23.1824 5.6149 62.2324 0
M  V30 36 H 27.325 6.386 61.3679 0
M  V30 37 H 26.6312 8.1891 59.7783 0
M  V30 38 H 24.2151 8.6404 59.4694 0
M  V30 END ATOM
M  V30 BEGIN BOND
M  V30 1 2 1 2
M  V30 2 2 1 3
M  V30 3 1 1 4
M  V30 4 1 1 5
M  V30 5 2 5 6
M  V30 6 1 5 7
M  V30 7 1 6 8
M  V30 8 2 7 9
M  V30 9 2 8 10
M  V30 10 1 10 11
M  V30 11 1 11 12
M  V30 12 1 12 13
M  V30 13 2 12 14
M  V30 14 1 13 15
M  V30 15 1 14 16
M  V30 16 1 15 17
M  V30 17 1 16 18
M  V30 18 2 17 19
M  V30 19 1 17 20
M  V30 20 2 20 21
M  V30 21 1 20 22
M  V30 22 1 21 23
M  V30 23 2 22 24
M  V30 24 2 23 25
M  V30 25 1 9 10
M  V30 26 2 15 16
M  V30 27 1 24 25
M  V30 28 1 4 26
M  V30 29 1 4 27
M  V30 30 1 6 28
M  V30 31 1 7 29
M  V30 32 1 8 30
M  V30 33 1 9 31
M  V30 34 1 11 32
M  V30 35 1 18 33
M  V30 36 1 18 34
M  V30 37 1 21 35
M  V30 38 1 22 36
M  V30 39 1 24 37
M  V30 40 1 25 38
M  V30 END BOND
M  V30 END CTAB
M  END
>  <Molecule Name>
ZDFKJVWFYGHALK-HWHDIUAINA-N

>  <hs_clash>
3.0

>  <hs_total>
129.73599840797638

>  <Total Molweight>
375.432

>  <cLogP>
1.4647

>  <H-Acceptors>
8

>  <H-Donors>
3

>  <Polar Surface Area>
177.68

>  <Non-H Atoms>
25

>  <sp3-Atoms>
1

$$$$
CEXBEGBNDJVZPK-LUVCRWLHNA-M
Actelion Java MolfileCreator 2.0

  0  0  0  0  0  0              0 V3000
M  V30 BEGIN CTAB
M  V30 COUNTS 44 47 0 0 0
M  V30 BEGIN ATOM
M  V30 1 S 26.0576 9.7863 62.6216 0
M  V30 2 O 25.2375 8.917 63.4219 0
M  V30 3 O 26.3207 11.1251 63.065 0
M  V30 4 N 27.5082 9.1054 62.3638 0
M  V30 5 C 25.5183 9.8019 60.9435 0
M  V30 6 C 28.2503 8.4044 63.2972 0
M  V30 7 C 27.9614 9.3221 60.9883 0
M  V30 8 C 26.8563 10.1393 60.2666 0
M  V30 9 C 27.8007 7.1055 63.6597 0
M  V30 10 C 29.4372 8.9213 63.8995 0
M  V30 11 O 26.6463 6.6061 63.0587 0
M  V30 12 C 28.5118 6.3253 64.6152 0
M  V30 13 C 30.1606 8.1384 64.8602 0
M  V30 14 C 26.1186 5.3625 63.3318 0
M  V30 15 C 27.9744 4.9681 64.9487 0
M  V30 16 C 29.6858 6.8463 65.2095 0
M  V30 17 C 31.4193 8.6647 65.5065 0
M  V30 18 C 26.7082 4.5057 64.2464 0
M  V30 19 C 24.9016 5.0632 62.554 0
M  V30 20 O 28.4523 4.1513 65.7459 0
M  V30 21 O 26.2634 3.2488 64.5908 0 CHG=-1
M  V30 22 C 24.0209 6.1452 62.2772 0
M  V30 23 C 24.5972 3.7521 62.0568 0
M  V30 24 C 22.8606 5.9301 61.5233 0
M  V30 25 C 23.4248 3.528 61.297 0
M  V30 26 O 21.9633 6.9529 61.2147 0
M  V30 27 C 22.5661 4.614 61.0322 0
M  V30 28 O 21.4214 4.4531 60.295 0
M  V30 29 H 24.7571 10.5753 60.7618 0
M  V30 30 H 25.1297 8.8234 60.6257 0
M  V30 31 H 28.1071 8.3562 60.4826 0
M  V30 32 H 28.9074 9.8834 60.9868 0
M  V30 33 H 27.0634 11.2157 60.3597 0
M  V30 34 H 26.8189 9.8634 59.2027 0
M  V30 35 H 29.7918 9.9055 63.6313 0
M  V30 36 H 30.2255 6.2558 65.9353 0
M  V30 37 H 32.2596 7.9946 65.2735 0
M  V30 38 H 31.6357 9.6721 65.1212 0
M  V30 39 H 31.2794 8.712 66.5969 0
M  V30 40 H 24.247 7.1338 62.649 0
M  V30 41 H 25.267 2.9311 62.2643 0
M  V30 42 H 23.1918 2.541 60.9258 0
M  V30 43 H 22.444 7.7486 61.02 0
M  V30 44 H 21.3407 5.168 59.6743 0
M  V30 END ATOM
M  V30 BEGIN BOND
M  V30 1 2 1 2
M  V30 2 2 1 3
M  V30 3 1 1 4
M  V30 4 1 1 5
M  V30 5 1 4 6
M  V30 6 1 4 7
M  V30 7 1 5 8
M  V30 8 2 6 9
M  V30 9 1 6 10
M  V30 10 1 9 11
M  V30 11 1 9 12
M  V30 12 2 10 13
M  V30 13 1 11 14
M  V30 14 1 12 15
M  V30 15 2 12 16
M  V30 16 1 13 17
M  V30 17 2 14 18
M  V30 18 1 14 19
M  V30 19 2 15 20
M  V30 20 1 18 21
M  V30 21 2 19 22
M  V30 22 1 19 23
M  V30 23 1 22 24
M  V30 24 2 23 25
M  V30 25 1 24 26
M  V30 26 2 24 27
M  V30 27 1 27 28
M  V30 28 1 7 8
M  V30 29 1 13 16
M  V30 30 1 15 18
M  V30 31 1 25 27
M  V30 32 1 5 29
M  V30 33 1 5 30
M  V30 34 1 7 31
M  V30 35 1 7 32
M  V30 36 1 8 33
M  V30 37 1 8 34
M  V30 38 1 10 35
M  V30 39 1 16 36
M  V30 40 1 17 37
M  V30 41 1 17 38
M  V30 42 1 17 39
M  V30 43 1 22 40
M  V30 44 1 23 41
M  V30 45 1 25 42
M  V30 46 1 26 43
M  V30 47 1 28 44
M  V30 END BOND
M  V30 END CTAB
M  END
>  <Molecule Name>
CEXBEGBNDJVZPK-LUVCRWLHNA-M

>  <hs_clash>
6.0

>  <hs_total>
129.4791642340766

>  <Total Molweight>
402.402

>  <cLogP>
-0.7275

>  <H-Acceptors>
8

>  <H-Donors>
2

>  <Polar Surface Area>
135.58

>  <Non-H Atoms>
28

>  <sp3-Atoms>
9

$$$$
HSKWJUIRLWHLHC-WQZYCBLFNA-O
Actelion Java MolfileCreator 2.0

  0  0  0  0  0  0              0 V3000
M  V30 BEGIN CTAB
M  V30 COUNTS 39 40 0 0 0
M  V30 BEGIN ATOM
M  V30 1 O 23.7531 7.2811 62.9842 0
M  V30 2 N 24.8101 8.0898 62.8794 0 CHG=1
M  V30 3 O 24.6238 9.3003 62.3373 0 CHG=-1
M  V30 4 C 26.0675 7.6868 63.3175 0
M  V30 5 C 26.2585 6.3973 63.8959 0
M  V30 6 C 27.1906 8.5491 63.1983 0
M  V30 7 C 27.5445 5.9592 64.3508 0
M  V30 8 C 28.4732 8.1486 63.6325 0
M  V30 9 C 28.7026 6.8368 64.2251 0
M  V30 10 C 27.6119 4.5818 64.9291 0
M  V30 11 N 29.9011 6.4311 64.6376 0
M  V30 12 O 28.5056 4.308 65.8767 0
M  V30 13 N 26.7927 3.5995 64.4984 0
M  V30 14 C 31.193 7.1592 64.5414 0
M  V30 15 C 31.4098 8.1843 65.628 0
M  V30 16 C 31.9256 9.4733 65.2847 0
M  V30 17 C 31.1122 7.8961 66.9935 0
M  V30 18 C 32.1377 10.4564 66.2823 0
M  V30 19 C 31.3231 8.8783 67.9982 0
M  V30 20 C 31.8403 10.1794 67.6586 0
M  V30 21 C 32.0626 11.1759 68.5939 0
M  V30 22 N 33.4806 11.3624 68.9059 0 CHG=1
M  V30 23 H 25.412 5.7339 63.9933 0
M  V30 24 H 27.0606 9.5308 62.767 0
M  V30 25 H 29.3033 8.8304 63.5229 0
M  V30 26 H 29.8917 5.6657 65.2807 0
M  V30 27 H 26.8627 2.6822 64.8903 0
M  V30 28 H 26.1157 3.789 63.7873 0
M  V30 29 H 32.0082 6.4228 64.5949 0
M  V30 30 H 31.2268 7.6742 63.5702 0
M  V30 31 H 32.1558 9.6996 64.2543 0
M  V30 32 H 30.7239 6.9256 67.2652 0
M  V30 33 H 32.5272 11.4245 66.0044 0
M  V30 34 H 31.0934 8.6474 69.0279 0
M  V30 35 H 31.5317 10.9116 69.5204 0
M  V30 36 H 31.663 12.122 68.1999 0
M  V30 37 H 33.57 11.9033 69.7421 0
M  V30 38 H 33.9127 10.4706 69.0381 0
M  V30 39 H 33.9277 11.8409 68.1503 0
M  V30 END ATOM
M  V30 BEGIN BOND
M  V30 1 2 1 2
M  V30 2 1 2 3
M  V30 3 1 2 4
M  V30 4 2 4 5
M  V30 5 1 4 6
M  V30 6 1 5 7
M  V30 7 2 6 8
M  V30 8 2 7 9
M  V30 9 1 7 10
M  V30 10 1 9 11
M  V30 11 2 10 12
M  V30 12 1 10 13
M  V30 13 1 11 14
M  V30 14 1 14 15
M  V30 15 2 15 16
M  V30 16 1 15 17
M  V30 17 1 16 18
M  V30 18 2 17 19
M  V30 19 2 18 20
M  V30 20 1 20 21
M  V30 21 1 21 22
M  V30 22 1 8 9
M  V30 23 1 19 20
M  V30 24 1 5 23
M  V30 25 1 6 24
M  V30 26 1 8 25
M  V30 27 1 11 26
M  V30 28 1 13 27
M  V30 29 1 13 28
M  V30 30 1 14 29
M  V30 31 1 14 30
M  V30 32 1 16 31
M  V30 33 1 17 32
M  V30 34 1 18 33
M  V30 35 1 19 34
M  V30 36 1 21 35
M  V30 37 1 21 36
M  V30 38 1 22 37
M  V30 39 1 22 38
M  V30 40 1 22 39
M  V30 END BOND
M  V30 END CTAB
M  END
>  <Molecule Name>
HSKWJUIRLWHLHC-WQZYCBLFNA-O

>  <hs_clash>
0.0

>  <hs_total>
128.65606549036522

>  <Total Molweight>
301.325

>  <cLogP>
0.368

>  <H-Acceptors>
7

>  <H-Donors>
3

>  <Polar Surface Area>
128.58

>  <Non-H Atoms>
22

>  <sp3-Atoms>
4

$$$$
HEKMYKTWCKGDFA-VNHAUOCNNA-N
Actelion Java MolfileCreator 2.0

  0  0  0  0  0  0              0 V3000
M  V30 BEGIN CTAB
M  V30 COUNTS 39 41 0 0 0
M  V30 BEGIN ATOM
M  V30 1 S 32.4413 9.767 67.9597 0
M  V30 2 O 33.8345 9.9971 67.6028 0
M  V30 3 O 31.8079 11.0292 68.3358 0
M  V30 4 N 32.3709 8.6585 69.2271 0
M  V30 5 C 31.6013 9.0964 66.5414 0
M  V30 6 C 31.0222 7.8094 66.6208 0
M  V30 7 C 31.5181 9.8546 65.3425 0
M  V30 8 C 30.3493 7.2455 65.5066 0
M  V30 9 C 30.8522 9.3124 64.206 0
M  V30 10 N 29.8425 6.0493 65.6518 0
M  V30 11 C 30.2713 8.0113 64.2847 0
M  V30 12 C 28.8315 5.5232 65.0357 0
M  V30 13 S 27.7329 6.3979 64.0158 0
M  V30 14 N 28.5766 4.2322 65.1568 0
M  V30 15 C 26.8565 4.9552 63.6949 0
M  V30 16 C 27.4558 3.9014 64.3989 0
M  V30 17 C 25.734 4.8566 62.8605 0
M  V30 18 N 27.0181 2.7103 64.3468 0
M  V30 19 O 25.0554 3.84 62.8796 0
M  V30 20 C 25.3768 5.8849 61.995 0
M  V30 21 C 26.3193 6.4354 61.0632 0
M  V30 22 C 24.048 6.4086 62.0258 0
M  V30 23 C 25.933 7.4897 60.1884 0
M  V30 24 C 23.668 7.4628 61.1461 0
M  V30 25 C 24.6123 8.0015 60.2313 0
M  V30 26 H 33.1615 8.0484 69.1812 0
M  V30 27 H 32.3782 9.1478 70.0996 0
M  V30 28 H 31.0929 7.2487 67.541 0
M  V30 29 H 31.9588 10.8394 65.2931 0
M  V30 30 H 30.7872 9.8824 63.291 0
M  V30 31 H 30.5396 5.3699 65.8804 0
M  V30 32 H 29.769 7.5962 63.4234 0
M  V30 33 H 26.0785 2.6846 64.6884 0
M  V30 34 H 27.5936 2.1183 64.9109 0
M  V30 35 H 27.3265 6.0479 61.0258 0
M  V30 36 H 23.3272 6.003 62.7205 0
M  V30 37 H 26.6478 7.9005 59.4908 0
M  V30 38 H 22.6609 7.8529 61.1743 0
M  V30 39 H 24.3229 8.8026 59.5673 0
M  V30 END ATOM
M  V30 BEGIN BOND
M  V30 1 2 1 2
M  V30 2 2 1 3
M  V30 3 1 1 4
M  V30 4 1 1 5
M  V30 5 2 5 6
M  V30 6 1 5 7
M  V30 7 1 6 8
M  V30 8 2 7 9
M  V30 9 1 8 10
M  V30 10 2 8 11
M  V30 11 1 10 12
M  V30 12 1 12 13
M  V30 13 2 12 14
M  V30 14 1 13 15
M  V30 15 1 14 16
M  V30 16 1 15 17
M  V30 17 1 16 18
M  V30 18 2 17 19
M  V30 19 1 17 20
M  V30 20 2 20 21
M  V30 21 1 20 22
M  V30 22 1 21 23
M  V30 23 2 22 24
M  V30 24 2 23 25
M  V30 25 1 9 11
M  V30 26 2 15 16
M  V30 27 1 24 25
M  V30 28 1 4 26
M  V30 29 1 4 27
M  V30 30 1 6 28
M  V30 31 1 7 29
M  V30 32 1 9 30
M  V30 33 1 10 31
M  V30 34 1 11 32
M  V30 35 1 18 33
M  V30 36 1 18 34
M  V30 37 1 21 35
M  V30 38 1 22 36
M  V30 39 1 23 37
M  V30 40 1 24 38
M  V30 41 1 25 39
M  V30 END BOND
M  V30 END CTAB
M  END
>  <Molecule Name>
HEKMYKTWCKGDFA-VNHAUOCNNA-N

>  <hs_clash>
0.0

>  <hs_total>
128.27649597906864

>  <Total Molweight>
374.444

>  <cLogP>
2.4656

>  <H-Acceptors>
7

>  <H-Donors>
3

>  <Polar Surface Area>
164.79

>  <Non-H Atoms>
25

>  <sp3-Atoms>
1

$$$$
ZEHGENUDEXWDNX-GDKXUYCINA-N
Actelion Java MolfileCreator 2.0

  0  0  0  0  0  0              0 V3000
M  V30 BEGIN CTAB
M  V30 COUNTS 52 54 0 0 0
M  V30 BEGIN ATOM
M  V30 1 S 33.0787 11.0352 64.8349 0 CFG=2
M  V30 2 O 34.1755 10.6547 63.9153 0
M  V30 3 N 32.2286 12.1378 64.0695 0
M  V30 4 C 32.127 9.6069 65.0074 0
M  V30 5 C 33.8545 11.7357 66.3144 0
M  V30 6 C 31.0637 9.4032 64.1384 0
M  V30 7 C 32.4609 8.6921 65.977 0
M  V30 8 C 32.9714 12.3404 67.4411 0
M  V30 9 C 33.5976 13.2373 66.3688 0
M  V30 10 C 30.2945 8.2551 64.2299 0
M  V30 11 C 31.6737 7.5652 66.0782 0
M  V30 12 C 30.5898 7.3169 65.2237 0
M  V30 13 N 29.9597 6.1544 65.4286 0
M  V30 14 C 28.827 5.7051 64.8916 0
M  V30 15 N 28.0848 6.4649 64.0964 0
M  V30 16 N 28.3606 4.4933 65.2675 0
M  V30 17 C 26.9043 6.0501 63.5817 0
M  V30 18 C 27.2435 4.0092 64.7704 0
M  V30 19 O 26.1883 6.8942 62.7538 0
M  V30 20 C 26.4644 4.7777 63.9012 0
M  V30 21 C 26.934 7.8798 62.1323 0 CFG=2
M  V30 22 C 25.1522 4.2194 63.386 0
M  V30 23 C 26.3019 8.0294 60.7187 0 CFG=1
M  V30 24 C 26.6258 9.167 62.8955 0
M  V30 25 F 25.0549 4.3759 62.0446 0
M  V30 26 F 25.0427 2.898 63.8131 0
M  V30 27 F 24.1534 4.9021 63.8769 0
M  V30 28 O 24.9145 8.3232 60.9143 0
M  V30 29 C 26.5052 6.7816 59.8973 0
M  V30 30 H 33.9483 10.9088 63.0286 0
M  V30 31 H 32.7751 12.9689 63.9668 0
M  V30 32 H 31.9723 11.7935 63.1665 0
M  V30 33 H 34.8486 11.3322 66.5575 0
M  V30 34 H 30.8349 10.1443 63.3867 0
M  V30 35 H 33.3046 8.8498 66.6324 0
M  V30 36 H 31.8858 12.1628 67.4475 0
M  V30 37 H 33.3432 12.375 68.4759 0
M  V30 38 H 32.9573 13.7106 65.6095 0
M  V30 39 H 34.4147 13.9228 66.638 0
M  V30 40 H 29.4779 8.0868 63.5435 0
M  V30 41 H 31.9013 6.8431 66.8484 0
M  V30 42 H 30.6024 5.4118 65.6163 0
M  V30 43 H 26.9259 3.0115 65.0356 0
M  V30 44 H 28.0133 7.6752 62.0786 0
M  V30 45 H 26.7934 8.8722 60.2104 0
M  V30 46 H 27.1896 10.001 62.452 0
M  V30 47 H 25.5482 9.3802 62.8353 0
M  V30 48 H 26.9172 9.047 63.9496 0
M  V30 49 H 24.6234 8.937 60.2501 0
M  V30 50 H 26.0488 6.9165 58.9057 0
M  V30 51 H 27.5821 6.5899 59.7826 0
M  V30 52 H 26.0326 5.9276 60.4051 0
M  V30 END ATOM
M  V30 BEGIN BOND
M  V30 1 1 1 2
M  V30 2 1 1 3
M  V30 3 1 1 4
M  V30 4 1 1 5
M  V30 5 2 4 6
M  V30 6 1 4 7
M  V30 7 1 5 8
M  V30 8 1 5 9
M  V30 9 1 6 10
M  V30 10 2 7 11
M  V30 11 2 10 12
M  V30 12 1 12 13
M  V30 13 1 13 14
M  V30 14 2 14 15
M  V30 15 1 14 16
M  V30 16 1 15 17
M  V30 17 2 16 18
M  V30 18 1 17 19
M  V30 19 2 17 20
M  V30 20 1 19 21
M  V30 21 1 20 22
M  V30 22 1 21 23
M  V30 23 1 21 24
M  V30 24 1 22 25
M  V30 25 1 22 26
M  V30 26 1 22 27
M  V30 27 1 23 28
M  V30 28 1 23 29
M  V30 29 1 8 9
M  V30 30 1 11 12
M  V30 31 1 18 20
M  V30 32 1 2 30
M  V30 33 1 3 31
M  V30 34 1 3 32
M  V30 35 1 5 33
M  V30 36 1 6 34
M  V30 37 1 7 35
M  V30 38 1 8 36
M  V30 39 1 8 37
M  V30 40 1 9 38
M  V30 41 1 9 39
M  V30 42 1 10 40
M  V30 43 1 11 41
M  V30 44 1 13 42
M  V30 45 1 18 43
M  V30 46 1 21 44
M  V30 47 1 23 45
M  V30 48 1 24 46
M  V30 49 1 24 47
M  V30 50 1 24 48
M  V30 51 1 28 49
M  V30 52 1 29 50
M  V30 53 1 29 51
M  V30 54 1 29 52
M  V30 END BOND
M  V30 BEGIN COLLECTION
M  V30 MDLV30/STERAC1 ATOMS=(3 1 21 23)
M  V30 END COLLECTION
M  V30 END CTAB
M  END
>  <Molecule Name>
ZEHGENUDEXWDNX-GDKXUYCINA-N

>  <hs_clash>
4.0

>  <hs_total>
127.1212727716248

>  <Total Molweight>
432.466

>  <cLogP>
2.4794

>  <H-Acceptors>
7

>  <H-Donors>
4

>  <Polar Surface Area>
113.52

>  <Non-H Atoms>
29

>  <sp3-Atoms>
13

$$$$
JGISNHKSXXXJQV-BPDPDGQMNA-O
Actelion Java MolfileCreator 2.0

  0  0  0  0  0  0              0 V3000
M  V30 BEGIN CTAB
M  V30 COUNTS 39 42 0 0 0
M  V30 BEGIN ATOM
M  V30 1 F 23.463 5.9873 61.0912 0
M  V30 2 C 24.2994 5.3723 61.9496 0
M  V30 3 C 25.5175 6.0071 62.4496 0
M  V30 4 C 23.9757 4.0623 62.3741 0
M  V30 5 C 26.0574 7.3353 62.1528 0
M  V30 6 C 26.3031 5.2125 63.3627 0 CFG=2
M  V30 7 C 24.7892 3.3098 63.2856 0
M  V30 8 N 25.4507 8.3146 61.2652 0
M  V30 9 C 27.2998 7.7168 62.7729 0
M  V30 10 C 27.4977 5.5664 63.9735 0
M  V30 11 C 25.9579 3.8842 63.7867 0
M  V30 12 C 25.8606 9.7474 61.066 0
M  V30 13 C 28.0957 6.8745 63.7097 0
M  V30 14 C 27.9199 4.3993 64.8387 0
M  V30 15 N 26.9315 3.3995 64.6776 0
M  V30 16 C 25.549 10.3704 59.6755 0
M  V30 17 C 29.339 7.3987 64.2409 0
M  V30 18 O 28.9026 4.2892 65.5458 0
M  V30 19 N 25.8345 9.4464 58.5721 0 CHG=1
M  V30 20 N 30.192 6.7848 65.0884 0
M  V30 21 C 29.9402 8.67 63.9857 0
M  V30 22 C 31.2884 7.5691 65.3878 0
M  V30 23 C 31.1449 8.7552 64.7037 0
M  V30 24 H 23.0735 3.6066 61.9939 0
M  V30 25 H 25.7428 5.6311 64.2121 0
M  V30 26 H 24.5003 2.3119 63.5805 0
M  V30 27 H 24.5367 8.0815 60.9332 0
M  V30 28 H 27.6878 8.6971 62.539 0
M  V30 29 H 26.9473 9.8096 61.2244 0
M  V30 30 H 25.3441 10.3519 61.8265 0
M  V30 31 H 26.1629 11.274 59.5477 0
M  V30 32 H 24.4837 10.6432 59.6413 0
M  V30 33 H 25.8571 9.953 57.7103 0
M  V30 34 H 26.7204 9.0088 58.7251 0
M  V30 35 H 25.1203 8.7477 58.5296 0
M  V30 36 H 30.0465 5.8668 65.4571 0
M  V30 37 H 29.5349 9.4395 63.3455 0
M  V30 38 H 32.1075 7.3012 66.0388 0
M  V30 39 H 31.8279 9.5918 64.7169 0
M  V30 END ATOM
M  V30 BEGIN BOND
M  V30 1 1 1 2
M  V30 2 2 2 3
M  V30 3 1 2 4
M  V30 4 1 3 5
M  V30 5 1 3 6
M  V30 6 2 4 7
M  V30 7 1 5 8
M  V30 8 2 5 9
M  V30 9 1 6 10
M  V30 10 1 6 11
M  V30 11 1 8 12
M  V30 12 1 9 13
M  V30 13 1 10 14
M  V30 14 2 11 15
M  V30 15 1 12 16
M  V30 16 1 13 17
M  V30 17 2 14 18
M  V30 18 1 16 19
M  V30 19 1 17 20
M  V30 20 2 17 21
M  V30 21 1 20 22
M  V30 22 1 21 23
M  V30 23 1 7 11
M  V30 24 2 10 13
M  V30 25 1 14 15
M  V30 26 2 22 23
M  V30 27 1 4 24
M  V30 28 1 6 25
M  V30 29 1 7 26
M  V30 30 1 8 27
M  V30 31 1 9 28
M  V30 32 1 12 29
M  V30 33 1 12 30
M  V30 34 1 16 31
M  V30 35 1 16 32
M  V30 36 1 19 33
M  V30 37 1 19 34
M  V30 38 1 19 35
M  V30 39 1 20 36
M  V30 40 1 21 37
M  V30 41 1 22 38
M  V30 42 1 23 39
M  V30 END BOND
M  V30 BEGIN COLLECTION
M  V30 MDLV30/STERAC1 ATOMS=(1 6)
M  V30 END COLLECTION
M  V30 END CTAB
M  END
>  <Molecule Name>
JGISNHKSXXXJQV-BPDPDGQMNA-O

>  <hs_clash>
0.0

>  <hs_total>
127.04433280307686

>  <Total Molweight>
311.339

>  <cLogP>
-3.7033

>  <H-Acceptors>
5

>  <H-Donors>
3

>  <Polar Surface Area>
84.89

>  <Non-H Atoms>
23

>  <sp3-Atoms>
4

$$$$
KYYOHACAJWYNOT-XBXBPLPCNA-N
Actelion Java MolfileCreator 2.0

  0  0  0  0  0  0              0 V3000
M  V30 BEGIN CTAB
M  V30 COUNTS 49 52 0 0 0
M  V30 BEGIN ATOM
M  V30 1 O 29.7002 8.0232 64.1118 0
M  V30 2 C 30.2846 7.3261 64.9416 0
M  V30 3 N 29.8884 6.1338 65.4042 0
M  V30 4 C 31.5968 7.8122 65.5604 0
M  V30 5 C 28.8309 5.3685 65.0879 0
M  V30 6 C 31.38 8.2775 67.0001 0
M  V30 7 N 28.6946 4.1532 65.6106 0
M  V30 8 C 27.7622 5.5761 64.2183 0
M  V30 9 C 32.5389 9.149 67.4811 0
M  V30 10 N 27.6882 3.5925 65.1642 0
M  V30 11 C 27.0468 4.3892 64.3116 0
M  V30 12 C 27.3071 6.589 63.3677 0
M  V30 13 C 25.8976 4.2042 63.5453 0
M  V30 14 C 26.1494 6.4267 62.5925 0
M  V30 15 C 25.4328 5.2055 62.6861 0
M  V30 16 C 25.8137 7.4687 61.7092 0
M  V30 17 C 24.2719 4.9161 61.972 0
M  V30 18 C 25.4816 8.7542 62.1734 0
M  V30 19 C 25.8675 7.2418 60.3236 0
M  V30 20 C 24.1446 3.6286 61.4456 0
M  V30 21 C 23.234 5.8423 61.8192 0
M  V30 22 C 25.166 9.7884 61.2713 0
M  V30 23 C 25.5621 8.2662 59.4236 0
M  V30 24 C 23.0317 3.2844 60.691 0
M  V30 25 C 22.1241 5.496 61.0449 0
M  V30 26 C 25.2061 9.5384 59.8959 0
M  V30 27 C 22.0166 4.2158 60.5013 0
M  V30 28 O 20.9191 3.8564 59.7887 0
M  V30 29 H 30.4838 5.7453 66.1075 0
M  V30 30 H 32.3251 6.9882 65.5537 0
M  V30 31 H 31.9867 8.6513 64.9654 0
M  V30 32 H 30.448 8.8596 67.0526 0
M  V30 33 H 31.2989 7.3963 67.6535 0
M  V30 34 H 32.3535 9.4672 68.5178 0
M  V30 35 H 33.4742 8.5723 67.4363 0
M  V30 36 H 32.6231 10.0357 66.8354 0
M  V30 37 H 27.3957 2.6682 65.4092 0
M  V30 38 H 27.8585 7.5156 63.307 0
M  V30 39 H 25.3565 3.2723 63.6163 0
M  V30 40 H 25.4684 8.951 63.2355 0
M  V30 41 H 26.1472 6.2677 59.9512 0
M  V30 42 H 24.9171 2.8962 61.627 0
M  V30 43 H 23.29 6.811 62.2938 0
M  V30 44 H 24.8948 10.7672 61.6387 0
M  V30 45 H 25.6 8.078 58.3608 0
M  V30 46 H 22.9547 2.2999 60.2542 0
M  V30 47 H 21.3455 6.223 60.866 0
M  V30 48 H 24.9633 10.3252 59.1972 0
M  V30 49 H 21.0541 2.9952 59.4118 0
M  V30 END ATOM
M  V30 BEGIN BOND
M  V30 1 2 1 2
M  V30 2 1 2 3
M  V30 3 1 2 4
M  V30 4 1 3 5
M  V30 5 1 4 6
M  V30 6 2 5 7
M  V30 7 1 5 8
M  V30 8 1 6 9
M  V30 9 1 7 10
M  V30 10 2 8 11
M  V30 11 1 8 12
M  V30 12 1 11 13
M  V30 13 2 12 14
M  V30 14 2 13 15
M  V30 15 1 14 16
M  V30 16 1 15 17
M  V30 17 2 16 18
M  V30 18 1 16 19
M  V30 19 2 17 20
M  V30 20 1 17 21
M  V30 21 1 18 22
M  V30 22 2 19 23
M  V30 23 1 20 24
M  V30 24 2 21 25
M  V30 25 2 22 26
M  V30 26 2 24 27
M  V30 27 1 27 28
M  V30 28 1 10 11
M  V30 29 1 14 15
M  V30 30 1 23 26
M  V30 31 1 25 27
M  V30 32 1 3 29
M  V30 33 1 4 30
M  V30 34 1 4 31
M  V30 35 1 6 32
M  V30 36 1 6 33
M  V30 37 1 9 34
M  V30 38 1 9 35
M  V30 39 1 9 36
M  V30 40 1 10 37
M  V30 41 1 12 38
M  V30 42 1 13 39
M  V30 43 1 18 40
M  V30 44 1 19 41
M  V30 45 1 20 42
M  V30 46 1 21 43
M  V30 47 1 22 44
M  V30 48 1 23 45
M  V30 49 1 24 46
M  V30 50 1 25 47
M  V30 51 1 26 48
M  V30 52 1 28 49
M  V30 END BOND
M  V30 END CTAB
M  END
>  <Molecule Name>
KYYOHACAJWYNOT-XBXBPLPCNA-N

>  <hs_clash>
1.0

>  <hs_total>
126.7524922474679

>  <Total Molweight>
371.439

>  <cLogP>
4.8067

>  <H-Acceptors>
5

>  <H-Donors>
3

>  <Polar Surface Area>
78.01

>  <Non-H Atoms>
28

>  <sp3-Atoms>
4

$$$$
GAZJAWWHSQBFHM-GPQMBLKYNA-N
Actelion Java MolfileCreator 2.0

  0  0  0  0  0  0              0 V3000
M  V30 BEGIN CTAB
M  V30 COUNTS 39 41 0 0 0
M  V30 BEGIN ATOM
M  V30 1 S 27.6472 6.5413 64.0304 0
M  V30 2 C 28.6526 5.7088 65.1831 0
M  V30 3 C 26.7786 5.0271 63.7683 0
M  V30 4 N 28.3477 4.4339 65.348 0
M  V30 5 N 29.6702 6.3421 65.828 0
M  V30 6 C 27.2866 4.0349 64.5474 0
M  V30 7 C 25.6534 4.9282 62.7992 0
M  V30 8 C 30.15 7.6949 65.7291 0
M  V30 9 N 26.8344 2.7333 64.5778 0
M  V30 10 O 24.9787 3.8768 62.7665 0
M  V30 11 C 25.3481 6.0633 61.8632 0
M  V30 12 C 31.0643 7.8042 64.4559 0
M  V30 13 C 30.9539 8.11 66.9934 0
M  V30 14 C 23.9854 6.4643 61.6549 0
M  V30 15 C 26.3665 6.7864 61.1372 0
M  V30 16 C 31.6312 9.2345 64.2895 0
M  V30 17 C 31.4772 9.5671 66.8447 0
M  V30 18 N 23.631 7.4939 60.8101 0
M  V30 19 C 26.0039 7.8565 60.2632 0
M  V30 20 C 32.3708 9.7087 65.5786 0
M  V30 21 C 24.6143 8.1738 60.1334 0
M  V30 22 H 30.3147 5.7191 66.2707 0
M  V30 23 H 29.3045 8.3885 65.609 0
M  V30 24 H 27.3795 2.2061 65.2297 0
M  V30 25 H 26.0703 2.6306 63.9411 0
M  V30 26 H 30.4704 7.5487 63.566 0
M  V30 27 H 31.9007 7.0969 64.5543 0
M  V30 28 H 30.3007 8.0474 67.8763 0
M  V30 29 H 31.8081 7.4289 67.1204 0
M  V30 30 H 23.2046 5.937 62.1828 0
M  V30 31 H 27.4053 6.5172 61.2558 0
M  V30 32 H 32.3386 9.2431 63.4476 0
M  V30 33 H 30.8018 9.9257 64.0786 0
M  V30 34 H 30.6196 10.2509 66.7587 0
M  V30 35 H 32.0682 9.8306 67.7342 0
M  V30 36 H 26.7548 8.4087 59.7177 0
M  V30 37 H 32.653 10.7652 65.4588 0
M  V30 38 H 33.2769 9.1002 65.7131 0
M  V30 39 H 24.3267 8.981 59.476 0
M  V30 END ATOM
M  V30 BEGIN BOND
M  V30 1 1 1 2
M  V30 2 1 1 3
M  V30 3 2 2 4
M  V30 4 1 2 5
M  V30 5 2 3 6
M  V30 6 1 3 7
M  V30 7 1 5 8
M  V30 8 1 6 9
M  V30 9 2 7 10
M  V30 10 1 7 11
M  V30 11 1 8 12
M  V30 12 1 8 13
M  V30 13 2 11 14
M  V30 14 1 11 15
M  V30 15 1 12 16
M  V30 16 1 13 17
M  V30 17 1 14 18
M  V30 18 2 15 19
M  V30 19 1 16 20
M  V30 20 2 18 21
M  V30 21 1 4 6
M  V30 22 1 17 20
M  V30 23 1 19 21
M  V30 24 1 5 22
M  V30 25 1 8 23
M  V30 26 1 9 24
M  V30 27 1 9 25
M  V30 28 1 12 26
M  V30 29 1 12 27
M  V30 30 1 13 28
M  V30 31 1 13 29
M  V30 32 1 14 30
M  V30 33 1 15 31
M  V30 34 1 16 32
M  V30 35 1 16 33
M  V30 36 1 17 34
M  V30 37 1 17 35
M  V30 38 1 19 36
M  V30 39 1 20 37
M  V30 40 1 20 38
M  V30 41 1 21 39
M  V30 END BOND
M  V30 END CTAB
M  END
>  <Molecule Name>
GAZJAWWHSQBFHM-GPQMBLKYNA-N

>  <hs_clash>
0.0

>  <hs_total>
126.54258041419908

>  <Total Molweight>
302.401

>  <cLogP>
2.373

>  <H-Acceptors>
5

>  <H-Donors>
2

>  <Polar Surface Area>
109.14

>  <Non-H Atoms>
21

>  <sp3-Atoms>
6

$$$$
WHRVUTPLBUMBMW-YGPBECBDNA-N
Actelion Java MolfileCreator 2.0

  0  0  0  0  0  0              0 V3000
M  V30 BEGIN CTAB
M  V30 COUNTS 32 33 0 0 0
M  V30 BEGIN ATOM
M  V30 1 O 24.88 9.3562 62.705 0
M  V30 2 N 25.0933 8.095 63.0184 0 CHG=1
M  V30 3 O 24.1 7.223 62.8499 0 CHG=-1
M  V30 4 C 26.2438 7.7236 63.4802 0
M  V30 5 C 26.423 6.4061 64.0076 0
M  V30 6 C 27.3512 8.6204 63.4697 0
M  V30 7 C 27.6846 5.967 64.5236 0
M  V30 8 C 28.6152 8.213 63.9751 0
M  V30 9 C 28.8095 6.8856 64.5107 0
M  V30 10 C 27.7831 4.6662 65.0137 0
M  V30 11 N 29.9689 6.512 64.9765 0
M  V30 12 O 28.6053 4.3632 65.8443 0
M  V30 13 N 26.9386 3.6861 64.539 0
M  V30 14 C 31.2478 7.2805 64.7739 0
M  V30 15 C 31.5627 8.2053 65.9457 0
M  V30 16 N 32.4144 9.2693 65.7173 0
M  V30 17 C 30.9828 7.9536 67.2117 0
M  V30 18 C 32.6992 10.1066 66.7754 0
M  V30 19 C 31.2942 8.8347 68.2781 0
M  V30 20 C 32.1624 9.9298 68.0722 0
M  V30 21 H 25.5849 5.7249 64.0171 0
M  V30 22 H 27.2287 9.618 63.0742 0
M  V30 23 H 29.4431 8.9064 63.9587 0
M  V30 24 H 30.0111 5.6619 65.5014 0
M  V30 25 H 27.0158 2.7502 64.8827 0
M  V30 26 H 26.2485 3.9111 63.8508 0
M  V30 27 H 32.0747 6.5648 64.6568 0
M  V30 28 H 31.1547 7.8868 63.8609 0
M  V30 29 H 30.3211 7.1133 67.3618 0
M  V30 30 H 33.3653 10.9396 66.6054 0
M  V30 31 H 30.8644 8.6676 69.2549 0
M  V30 32 H 32.4079 10.6081 68.8765 0
M  V30 END ATOM
M  V30 BEGIN BOND
M  V30 1 2 1 2
M  V30 2 1 2 3
M  V30 3 1 2 4
M  V30 4 2 4 5
M  V30 5 1 4 6
M  V30 6 1 5 7
M  V30 7 2 6 8
M  V30 8 2 7 9
M  V30 9 1 7 10
M  V30 10 1 9 11
M  V30 11 2 10 12
M  V30 12 1 10 13
M  V30 13 1 11 14
M  V30 14 1 14 15
M  V30 15 2 15 16
M  V30 16 1 15 17
M  V30 17 1 16 18
M  V30 18 2 17 19
M  V30 19 2 18 20
M  V30 20 1 8 9
M  V30 21 1 19 20
M  V30 22 1 5 21
M  V30 23 1 6 22
M  V30 24 1 8 23
M  V30 25 1 11 24
M  V30 26 1 13 25
M  V30 27 1 13 26
M  V30 28 1 14 27
M  V30 29 1 14 28
M  V30 30 1 17 29
M  V30 31 1 18 30
M  V30 32 1 19 31
M  V30 33 1 20 32
M  V30 END BOND
M  V30 END CTAB
M  END
>  <Molecule Name>
WHRVUTPLBUMBMW-YGPBECBDNA-N

>  <hs_clash>
0.0

>  <hs_total>
126.53536261856482

>  <Total Molweight>
272.263

>  <cLogP>
-0.0565

>  <H-Acceptors>
7

>  <H-Donors>
2

>  <Polar Surface Area>
113.83

>  <Non-H Atoms>
20

>  <sp3-Atoms>
2

$$$$
KOFQZAVTXLVRJI-YHMJCDSINA-N
Actelion Java MolfileCreator 2.0

  0  0  0  0  0  0              0 V3000
M  V30 BEGIN CTAB
M  V30 COUNTS 28 29 0 0 0
M  V30 BEGIN ATOM
M  V30 1 Cl 25.4203 9.3311 58.3054 0
M  V30 2 C 25.8078 8.6037 59.8434 0
M  V30 3 S 25.8208 6.9169 60.0183 0
M  V30 4 C 26.118 9.2632 60.9997 0
M  V30 5 C 26.2491 7.0148 61.6978 0
M  V30 6 C 26.3753 8.3502 62.0802 0
M  V30 7 C 26.4105 5.7437 62.4637 0
M  V30 8 O 25.7419 4.7423 62.1605 0
M  V30 9 C 27.3736 5.6327 63.552 0
M  V30 10 S 28.309 6.9221 64.1523 0
M  V30 11 C 27.7129 4.5184 64.2731 0
M  V30 12 C 29.0725 5.867 65.3074 0
M  V30 13 N 28.656 4.6157 65.2601 0
M  V30 14 N 27.2645 3.2567 64.1829 0
M  V30 15 N 30.0248 6.2545 66.1971 0
M  V30 16 C 30.4699 7.634 66.3631 0
M  V30 17 C 31.825 7.6895 67.0747 0
M  V30 18 C 32.2944 9.1221 67.2558 0
M  V30 19 H 26.164 10.3386 61.091 0
M  V30 20 H 26.6379 8.6644 63.0798 0
M  V30 21 H 27.7293 2.6879 64.8615 0
M  V30 22 H 26.5764 3.1979 63.4596 0
M  V30 23 H 30.4451 5.5524 66.7718 0
M  V30 24 H 30.5632 8.104 65.373 0
M  V30 25 H 29.7267 8.1829 66.9606 0
M  V30 26 H 32.3757 6.8216 67.4055 0
M  V30 27 H 33.2368 9.3242 67.7432 0
M  V30 28 H 31.6856 9.9393 66.8975 0
M  V30 END ATOM
M  V30 BEGIN BOND
M  V30 1 1 1 2
M  V30 2 1 2 3
M  V30 3 2 2 4
M  V30 4 1 3 5
M  V30 5 1 4 6
M  V30 6 1 5 7
M  V30 7 2 7 8
M  V30 8 1 7 9
M  V30 9 1 9 10
M  V30 10 2 9 11
M  V30 11 1 10 12
M  V30 12 1 11 13
M  V30 13 1 11 14
M  V30 14 1 12 15
M  V30 15 1 15 16
M  V30 16 1 16 17
M  V30 17 2 17 18
M  V30 18 2 5 6
M  V30 19 2 12 13
M  V30 20 1 4 19
M  V30 21 1 6 20
M  V30 22 1 14 21
M  V30 23 1 14 22
M  V30 24 1 15 23
M  V30 25 1 16 24
M  V30 26 1 16 25
M  V30 27 1 17 26
M  V30 28 1 18 27
M  V30 29 1 18 28
M  V30 END BOND
M  V30 END CTAB
M  END
>  <Molecule Name>
KOFQZAVTXLVRJI-YHMJCDSINA-N

>  <hs_clash>
0.0

>  <hs_total>
126.32329622050607

>  <Total Molweight>
299.805

>  <cLogP>
3.1707

>  <H-Acceptors>
4

>  <H-Donors>
2

>  <Polar Surface Area>
124.49

>  <Non-H Atoms>
18

>  <sp3-Atoms>
1

$$$$
PDIHMNDWUQWWNQ-YAQRNVERNA-N
Actelion Java MolfileCreator 2.0

  0  0  0  0  0  0              0 V3000
M  V30 BEGIN CTAB
M  V30 COUNTS 32 33 0 0 0
M  V30 BEGIN ATOM
M  V30 1 S 27.6573 6.4779 64.0744 0
M  V30 2 C 28.6142 5.6707 65.2186 0
M  V30 3 C 26.7906 5.034 63.8394 0
M  V30 4 N 28.2834 4.3665 65.4174 0
M  V30 5 N 29.6634 6.2498 65.9201 0
M  V30 6 C 27.2528 4.0223 64.6376 0
M  V30 7 C 25.6478 4.8905 62.8584 0
M  V30 8 C 30.2278 7.5548 65.5251 0
M  V30 9 N 26.7627 2.8269 64.6433 0
M  V30 10 O 25.027 3.6924 62.7754 0
M  V30 11 C 25.189 5.9819 61.9633 0
M  V30 12 C 31.0825 8.0848 66.7109 0
M  V30 13 C 31.1243 7.4069 64.2685 0
M  V30 14 C 23.7838 6.2893 61.7894 0
M  V30 15 C 26.1668 6.7603 61.2146 0
M  V30 16 N 23.4279 7.3482 60.9011 0
M  V30 17 C 25.759 7.8225 60.3277 0
M  V30 18 C 24.3698 8.1027 60.1864 0
M  V30 19 H 30.3213 5.6038 66.3067 0
M  V30 20 H 29.4202 8.2713 65.3126 0
M  V30 21 H 25.7999 2.8619 64.9118 0
M  V30 22 H 27.2694 2.2616 65.2942 0
M  V30 23 H 30.4476 8.1903 67.6032 0
M  V30 24 H 31.896 7.3753 66.9222 0
M  V30 25 H 31.5089 9.0637 66.447 0
M  V30 26 H 30.5205 7.0322 63.4287 0
M  V30 27 H 31.5505 8.3861 64.005 0
M  V30 28 H 31.9377 6.6977 64.4802 0
M  V30 29 H 23.0251 5.7317 62.3186 0
M  V30 30 H 27.2176 6.5377 61.3261 0
M  V30 31 H 26.4936 8.395 59.781 0
M  V30 32 H 24.0422 8.8951 59.53 0
M  V30 END ATOM
M  V30 BEGIN BOND
M  V30 1 1 1 2
M  V30 2 1 1 3
M  V30 3 2 2 4
M  V30 4 1 2 5
M  V30 5 2 3 6
M  V30 6 1 3 7
M  V30 7 1 5 8
M  V30 8 1 6 9
M  V30 9 2 7 10
M  V30 10 1 7 11
M  V30 11 1 8 12
M  V30 12 1 8 13
M  V30 13 2 11 14
M  V30 14 1 11 15
M  V30 15 1 14 16
M  V30 16 2 15 17
M  V30 17 2 16 18
M  V30 18 1 4 6
M  V30 19 1 17 18
M  V30 20 1 5 19
M  V30 21 1 8 20
M  V30 22 1 9 21
M  V30 23 1 9 22
M  V30 24 1 12 23
M  V30 25 1 12 24
M  V30 26 1 12 25
M  V30 27 1 13 26
M  V30 28 1 13 27
M  V30 29 1 13 28
M  V30 30 1 14 29
M  V30 31 1 15 30
M  V30 32 1 17 31
M  V30 33 1 18 32
M  V30 END BOND
M  V30 END CTAB
M  END
>  <Molecule Name>
PDIHMNDWUQWWNQ-YAQRNVERNA-N

>  <hs_clash>
0.0

>  <hs_total>
126.15969942890382

>  <Total Molweight>
262.336

>  <cLogP>
1.5829

>  <H-Acceptors>
5

>  <H-Donors>
2

>  <Polar Surface Area>
109.14

>  <Non-H Atoms>
18

>  <sp3-Atoms>
3

$$$$
WJOUGMPFYANZMI-FUVBWKGZNA-O
Actelion Java MolfileCreator 2.0

  0  0  0  0  0  0              0 V3000
M  V30 BEGIN CTAB
M  V30 COUNTS 54 57 0 0 0
M  V30 BEGIN ATOM
M  V30 1 O 33.8784 10.8147 65.9157 0
M  V30 2 C 32.8976 9.8342 65.8798 0
M  V30 3 C 34.6718 11.1192 67.0745 0
M  V30 4 C 32.4526 9.3327 64.6428 0
M  V30 5 C 32.3256 9.3503 67.0716 0
M  V30 6 C 36.0594 10.5042 66.9525 0
M  V30 7 C 31.4607 8.3381 64.6012 0
M  V30 8 C 31.3378 8.3717 67.0318 0
M  V30 9 C 30.8986 7.8623 65.8058 0
M  V30 10 N 29.9229 6.9115 65.8447 0
M  V30 11 C 28.8079 6.8612 65.068 0
M  V30 12 N 28.1503 5.6167 64.8975 0
M  V30 13 C 28.1631 8.0305 64.376 0
M  V30 14 N 28.4896 4.396 65.4623 0
M  V30 15 C 27.0067 5.4763 64.0998 0
M  V30 16 C 26.9359 7.7862 63.5424 0
M  V30 17 C 28.7178 9.4391 64.4707 0
M  V30 18 C 27.5326 3.5081 64.9854 0
M  V30 19 N 26.421 6.5156 63.4314 0
M  V30 20 C 26.575 4.106 64.154 0
M  V30 21 N 26.3684 8.8658 62.9105 0
M  V30 22 C 25.4093 8.7775 61.8103 0 CFG=2
M  V30 23 C 25.9814 8.0133 60.5956 0
M  V30 24 C 24.9641 10.2036 61.4503 0
M  V30 25 N 25.1551 8.1901 59.4101 0 CHG=1
M  V30 26 C 23.9859 10.2316 60.2767 0
M  V30 27 C 24.5841 9.4972 59.0656 0
M  V30 28 H 34.7675 12.2108 67.1704 0
M  V30 29 H 34.1749 10.715 67.969 0
M  V30 30 H 32.874 9.7128 63.724 0
M  V30 31 H 32.6555 9.7413 68.0228 0
M  V30 32 H 36.6494 10.7487 67.8481 0
M  V30 33 H 35.9694 9.4119 66.8598 0
M  V30 34 H 36.562 10.9078 66.0612 0
M  V30 35 H 31.1301 7.9402 63.6534 0
M  V30 36 H 30.9078 8.0039 67.9518 0
M  V30 37 H 30.1636 6.062 66.3138 0
M  V30 38 H 28.0945 10.1202 63.8724 0
M  V30 39 H 28.7123 9.7653 65.5213 0
M  V30 40 H 29.7485 9.4537 64.0874 0
M  V30 41 H 27.527 2.4568 65.2323 0
M  V30 42 H 25.7229 3.6495 63.6726 0
M  V30 43 H 26.2182 9.6505 63.5122 0
M  V30 44 H 24.5224 8.2292 62.1605 0
M  V30 45 H 26.0304 6.942 60.8395 0
M  V30 46 H 26.9937 8.3879 60.3838 0
M  V30 47 H 25.8529 10.794 61.1832 0
M  V30 48 H 24.4756 10.6531 62.3277 0
M  V30 49 H 24.3835 7.5614 59.507 0
M  V30 50 H 25.7161 7.9123 58.6307 0
M  V30 51 H 23.0486 9.7381 60.5736 0
M  V30 52 H 23.7788 11.2763 60.0016 0
M  V30 53 H 23.7897 9.3469 58.3197 0
M  V30 54 H 25.3787 10.1237 58.6339 0
M  V30 END ATOM
M  V30 BEGIN BOND
M  V30 1 1 1 2
M  V30 2 1 1 3
M  V30 3 2 2 4
M  V30 4 1 2 5
M  V30 5 1 3 6
M  V30 6 1 4 7
M  V30 7 2 5 8
M  V30 8 2 7 9
M  V30 9 1 9 10
M  V30 10 1 10 11
M  V30 11 1 11 12
M  V30 12 2 11 13
M  V30 13 1 12 14
M  V30 14 1 12 15
M  V30 15 1 13 16
M  V30 16 1 13 17
M  V30 17 2 14 18
M  V30 18 1 15 19
M  V30 19 2 15 20
M  V30 20 1 16 21
M  V30 21 1 21 22
M  V30 22 1 22 23
M  V30 23 1 22 24
M  V30 24 1 23 25
M  V30 25 1 24 26
M  V30 26 1 25 27
M  V30 27 1 8 9
M  V30 28 2 16 19
M  V30 29 1 18 20
M  V30 30 1 26 27
M  V30 31 1 3 28
M  V30 32 1 3 29
M  V30 33 1 4 30
M  V30 34 1 5 31
M  V30 35 1 6 32
M  V30 36 1 6 33
M  V30 37 1 6 34
M  V30 38 1 7 35
M  V30 39 1 8 36
M  V30 40 1 10 37
M  V30 41 1 17 38
M  V30 42 1 17 39
M  V30 43 1 17 40
M  V30 44 1 18 41
M  V30 45 1 20 42
M  V30 46 1 21 43
M  V30 47 1 22 44
M  V30 48 1 23 45
M  V30 49 1 23 46
M  V30 50 1 24 47
M  V30 51 1 24 48
M  V30 52 1 25 49
M  V30 53 1 25 50
M  V30 54 1 26 51
M  V30 55 1 26 52
M  V30 56 1 27 53
M  V30 57 1 27 54
M  V30 END BOND
M  V30 BEGIN COLLECTION
M  V30 MDLV30/STERAC1 ATOMS=(1 22)
M  V30 END COLLECTION
M  V30 END CTAB
M  END
>  <Molecule Name>
WJOUGMPFYANZMI-FUVBWKGZNA-O

>  <hs_clash>
0.0

>  <hs_total>
125.8493884763806

>  <Total Molweight>
367.475

>  <cLogP>
2.1098

>  <H-Acceptors>
7

>  <H-Donors>
3

>  <Polar Surface Area>
80.09

>  <Non-H Atoms>
27

>  <sp3-Atoms>
10

$$$$
UTBSBSOBZHXMHI-VBYNKASTNA-O
Actelion Java MolfileCreator 2.0

  0  0  0  0  0  0              0 V3000
M  V30 BEGIN CTAB
M  V30 COUNTS 52 55 0 0 0
M  V30 BEGIN ATOM
M  V30 1 Cl 33.017 10.5031 63.8884 0
M  V30 2 C 32.3606 9.6415 65.2399 0
M  V30 3 C 31.4668 8.6478 64.9596 0
M  V30 4 C 32.7195 10.0025 66.5146 0
M  V30 5 C 30.9806 7.8954 66.0264 0
M  V30 6 C 32.2107 9.2821 67.5577 0
M  V30 7 N 30.0767 6.8353 65.8399 0
M  V30 8 C 31.328 8.2374 67.3267 0
M  V30 9 C 28.9701 6.7903 65.0492 0
M  V30 10 N 28.6055 7.8909 64.3574 0
M  V30 11 C 28.2158 5.6087 64.9079 0
M  V30 12 C 27.4852 7.8142 63.5707 0
M  V30 13 N 28.3633 4.3277 65.4277 0
M  V30 14 C 27.1228 5.6509 64.0541 0
M  V30 15 N 26.6909 6.7451 63.3617 0
M  V30 16 N 27.1579 8.9631 62.9173 0
M  V30 17 C 27.3414 3.6673 64.9141 0
M  V30 18 N 26.5268 4.4364 64.0947 0
M  V30 19 C 27.7909 10.2314 63.2577 0 CFG=2
M  V30 20 C 25.3473 3.9803 63.3357 0
M  V30 21 C 29.1125 10.3899 62.4988 0 CFG=2
M  V30 22 C 26.8235 11.3856 62.979 0
M  V30 23 C 24.0242 4.6457 63.6443 0
M  V30 24 N 28.9328 10.314 61.0093 0 CHG=1
M  V30 25 C 29.76 11.7189 62.8826 0
M  V30 26 C 27.4919 12.7168 63.3426 0
M  V30 27 C 28.8225 12.9001 62.633 0
M  V30 28 H 31.148 8.4521 63.9465 0
M  V30 29 H 33.3861 10.8342 66.6883 0
M  V30 30 H 32.4977 9.5278 68.5696 0
M  V30 31 H 30.4104 5.943 66.1436 0
M  V30 32 H 30.9109 7.6892 68.1585 0
M  V30 33 H 26.2039 9.0291 62.6246 0
M  V30 34 H 27.1563 2.6223 65.1136 0
M  V30 35 H 28.0181 10.2356 64.334 0
M  V30 36 H 25.2279 2.9037 63.5258 0
M  V30 37 H 25.5578 4.1434 62.2686 0
M  V30 38 H 29.7854 9.5776 62.811 0
M  V30 39 H 26.5561 11.3897 61.9121 0
M  V30 40 H 25.914 11.2555 63.5843 0
M  V30 41 H 23.2377 4.2113 63.0095 0
M  V30 42 H 23.7711 4.4854 64.7028 0
M  V30 43 H 24.1009 5.7249 63.4455 0
M  V30 44 H 28.5083 9.4413 60.7684 0
M  V30 45 H 28.3459 11.0648 60.7059 0
M  V30 46 H 29.8241 10.3861 60.5622 0
M  V30 47 H 30.6726 11.8562 62.2843 0
M  V30 48 H 30.0221 11.692 63.9507 0
M  V30 49 H 26.8209 13.5405 63.057 0
M  V30 50 H 27.6625 12.743 64.4292 0
M  V30 51 H 28.6411 12.9899 61.5519 0
M  V30 52 H 29.3002 13.8196 63.0025 0
M  V30 END ATOM
M  V30 BEGIN BOND
M  V30 1 1 1 2
M  V30 2 2 2 3
M  V30 3 1 2 4
M  V30 4 1 3 5
M  V30 5 2 4 6
M  V30 6 1 5 7
M  V30 7 2 5 8
M  V30 8 1 7 9
M  V30 9 2 9 10
M  V30 10 1 9 11
M  V30 11 1 10 12
M  V30 12 1 11 13
M  V30 13 2 11 14
M  V30 14 2 12 15
M  V30 15 1 12 16
M  V30 16 2 13 17
M  V30 17 1 14 18
M  V30 18 1 16 19
M  V30 19 1 18 20
M  V30 20 1 19 21
M  V30 21 1 19 22
M  V30 22 1 20 23
M  V30 23 1 21 24
M  V30 24 1 21 25
M  V30 25 1 22 26
M  V30 26 1 25 27
M  V30 27 1 6 8
M  V30 28 1 14 15
M  V30 29 1 17 18
M  V30 30 1 26 27
M  V30 31 1 3 28
M  V30 32 1 4 29
M  V30 33 1 6 30
M  V30 34 1 7 31
M  V30 35 1 8 32
M  V30 36 1 16 33
M  V30 37 1 17 34
M  V30 38 1 19 35
M  V30 39 1 20 36
M  V30 40 1 20 37
M  V30 41 1 21 38
M  V30 42 1 22 39
M  V30 43 1 22 40
M  V30 44 1 23 41
M  V30 45 1 23 42
M  V30 46 1 23 43
M  V30 47 1 24 44
M  V30 48 1 24 45
M  V30 49 1 24 46
M  V30 50 1 25 47
M  V30 51 1 25 48
M  V30 52 1 26 49
M  V30 53 1 26 50
M  V30 54 1 27 51
M  V30 55 1 27 52
M  V30 END BOND
M  V30 BEGIN COLLECTION
M  V30 MDLV30/STERAC1 ATOMS=(2 19 21)
M  V30 END COLLECTION
M  V30 END CTAB
M  END
>  <Molecule Name>
UTBSBSOBZHXMHI-VBYNKASTNA-O

>  <hs_clash>
0.0

>  <hs_total>
125.55905000630065

>  <Total Molweight>
386.910

>  <cLogP>
0.0069995

>  <H-Acceptors>
7

>  <H-Donors>
3

>  <Polar Surface Area>
95.3

>  <Non-H Atoms>
27

>  <sp3-Atoms>
9

$$$$
FOESVLPZMGVWBM-PDRRIPHVNA-O
Actelion Java MolfileCreator 2.0

  0  0  0  0  0  0              0 V3000
M  V30 BEGIN CTAB
M  V30 COUNTS 47 49 0 0 0
M  V30 BEGIN ATOM
M  V30 1 N 24.5252 3.6571 62.7927 0
M  V30 2 C 25.4343 4.0464 63.3831 0
M  V30 3 C 26.5547 4.53 64.1007 0
M  V30 4 C 26.9903 5.8277 64.0993 0
M  V30 5 C 27.399 3.829 64.9663 0
M  V30 6 N 26.5626 6.9219 63.4674 0
M  V30 7 N 28.0708 5.8662 64.9362 0
M  V30 8 N 28.3266 4.6397 65.4945 0
M  V30 9 C 27.254 8.0689 63.6363 0
M  V30 10 C 28.7922 7.0182 65.1261 0
M  V30 11 N 26.7625 9.1462 62.9394 0
M  V30 12 C 28.363 8.1623 64.4679 0
M  V30 13 N 29.8903 6.9626 65.9726 0
M  V30 14 C 25.7864 9.0219 61.8704 0 CFG=1
M  V30 15 C 30.8505 8.0499 66.0773 0
M  V30 16 C 25.2711 10.4089 61.4838 0
M  V30 17 C 26.4063 8.2946 60.6617 0
M  V30 18 C 31.5616 7.9974 67.4301 0
M  V30 19 C 31.831 7.9787 64.9064 0
M  V30 20 C 24.3158 10.3511 60.3115 0
M  V30 21 C 25.5157 8.3359 59.418 0
M  V30 22 C 25.0283 9.7572 59.1172 0 CFG=1
M  V30 23 N 24.1154 9.7649 57.9236 0 CHG=1
M  V30 24 H 27.3149 2.774 65.1811 0
M  V30 25 H 27.4182 9.8907 62.8148 0
M  V30 26 H 28.8786 9.1022 64.5991 0
M  V30 27 H 30.1624 6.0664 66.3228 0
M  V30 28 H 24.9334 8.4255 62.2269 0
M  V30 29 H 30.3134 9.0081 66.013 0
M  V30 30 H 24.7482 10.8474 62.3469 0
M  V30 31 H 26.1277 11.0437 61.2132 0
M  V30 32 H 27.3676 8.772 60.4209 0
M  V30 33 H 26.5776 7.2431 60.9357 0
M  V30 34 H 30.8174 8.0516 68.2386 0
M  V30 35 H 32.124 7.0557 67.5123 0
M  V30 36 H 32.255 8.8472 67.5129 0
M  V30 37 H 31.2745 8.0198 63.9585 0
M  V30 38 H 32.5276 8.8283 64.9599 0
M  V30 39 H 32.3965 7.0368 64.9591 0
M  V30 40 H 23.4504 9.724 60.5729 0
M  V30 41 H 23.9716 11.367 60.067 0
M  V30 42 H 24.6425 7.6872 59.5828 0
M  V30 43 H 26.0898 7.9659 58.5559 0
M  V30 44 H 25.906 10.3804 58.8908 0
M  V30 45 H 24.591 9.3716 57.1371 0
M  V30 46 H 23.2991 9.2232 58.1249 0
M  V30 47 H 23.8476 10.7058 57.715 0
M  V30 END ATOM
M  V30 BEGIN BOND
M  V30 1 3 1 2
M  V30 2 1 2 3
M  V30 3 2 3 4
M  V30 4 1 3 5
M  V30 5 1 4 6
M  V30 6 1 4 7
M  V30 7 2 5 8
M  V30 8 2 6 9
M  V30 9 1 7 10
M  V30 10 1 9 11
M  V30 11 1 9 12
M  V30 12 1 10 13
M  V30 13 1 11 14
M  V30 14 1 13 15
M  V30 15 1 14 16
M  V30 16 1 14 17
M  V30 17 1 15 18
M  V30 18 1 15 19
M  V30 19 1 16 20
M  V30 20 1 17 21
M  V30 21 1 20 22
M  V30 22 1 22 23
M  V30 23 1 7 8
M  V30 24 2 10 12
M  V30 25 1 21 22
M  V30 26 1 5 24
M  V30 27 1 11 25
M  V30 28 1 12 26
M  V30 29 1 13 27
M  V30 30 1 14 28
M  V30 31 1 15 29
M  V30 32 1 16 30
M  V30 33 1 16 31
M  V30 34 1 17 32
M  V30 35 1 17 33
M  V30 36 1 18 34
M  V30 37 1 18 35
M  V30 38 1 18 36
M  V30 39 1 19 37
M  V30 40 1 19 38
M  V30 41 1 19 39
M  V30 42 1 20 40
M  V30 43 1 20 41
M  V30 44 1 21 42
M  V30 45 1 21 43
M  V30 46 1 22 44
M  V30 47 1 23 45
M  V30 48 1 23 46
M  V30 49 1 23 47
M  V30 END BOND
M  V30 BEGIN COLLECTION
M  V30 MDLV30/STEABS ATOMS=(2 14 22)
M  V30 END COLLECTION
M  V30 END CTAB
M  END
>  <Molecule Name>
FOESVLPZMGVWBM-PDRRIPHVNA-O

>  <hs_clash>
0.0

>  <hs_total>
125.47562788108709

>  <Total Molweight>
314.416

>  <cLogP>
-2.7047

>  <H-Acceptors>
7

>  <H-Donors>
3

>  <Polar Surface Area>
105.68

>  <Non-H Atoms>
23

>  <sp3-Atoms>
10

$$$$
ZHMRPXZRUZLCNL-HEBYQKOSNA-N
Actelion Java MolfileCreator 2.0

  0  0  0  0  0  0              0 V3000
M  V30 BEGIN CTAB
M  V30 COUNTS 35 37 0 0 0
M  V30 BEGIN ATOM
M  V30 1 O 25.8133 7.6072 63.6576 0
M  V30 2 C 26.4966 6.5759 64.2548 0
M  V30 3 C 26.5023 8.7397 63.1144 0
M  V30 4 C 26.0446 5.1586 64.2147 0
M  V30 5 C 27.696 6.8103 64.93 0
M  V30 6 C 25.7488 9.2755 61.8975 0
M  V30 7 C 26.8546 4.1645 64.931 0
M  V30 8 C 24.8435 4.4859 63.7592 0
M  V30 9 C 28.406 5.7853 65.5553 0
M  V30 10 C 26.0181 8.4124 60.6788 0
M  V30 11 N 28.0102 4.4998 65.5587 0
M  V30 12 N 26.2617 2.9382 64.8106 0
M  V30 13 C 23.8895 4.8366 62.6639 0
M  V30 14 C 25.1056 3.0283 64.0756 0
M  V30 15 N 23.2754 3.8398 61.9804 0
M  V30 16 C 23.4851 6.1537 62.4556 0
M  V30 17 C 22.3435 4.1007 61.0395 0
M  V30 18 C 22.5286 6.4049 61.4751 0
M  V30 19 N 21.9677 5.3805 60.7977 0
M  V30 20 N 21.782 3.0731 60.3553 0
M  V30 21 H 26.5667 9.5282 63.8792 0
M  V30 22 H 27.5161 8.4388 62.812 0
M  V30 23 H 28.0862 7.8168 64.9692 0
M  V30 24 H 24.6693 9.273 62.1107 0
M  V30 25 H 26.079 10.3045 61.6919 0
M  V30 26 H 29.3242 6.0379 66.0651 0
M  V30 27 H 25.4676 8.8144 59.8153 0
M  V30 28 H 27.0959 8.4145 60.4595 0
M  V30 29 H 25.6862 7.3828 60.8783 0
M  V30 30 H 26.6209 2.0922 65.2038 0
M  V30 31 H 24.4854 2.1973 63.7732 0
M  V30 32 H 23.9031 6.96 63.0403 0
M  V30 33 H 22.2347 7.4211 61.2562 0
M  V30 34 H 21.1081 3.4314 59.709 0
M  V30 35 H 22.1794 2.2095 60.6654 0
M  V30 END ATOM
M  V30 BEGIN BOND
M  V30 1 1 1 2
M  V30 2 1 1 3
M  V30 3 2 2 4
M  V30 4 1 2 5
M  V30 5 1 3 6
M  V30 6 1 4 7
M  V30 7 1 4 8
M  V30 8 2 5 9
M  V30 9 1 6 10
M  V30 10 2 7 11
M  V30 11 1 7 12
M  V30 12 1 8 13
M  V30 13 2 8 14
M  V30 14 2 13 15
M  V30 15 1 13 16
M  V30 16 1 15 17
M  V30 17 2 16 18
M  V30 18 2 17 19
M  V30 19 1 17 20
M  V30 20 1 9 11
M  V30 21 1 12 14
M  V30 22 1 18 19
M  V30 23 1 3 21
M  V30 24 1 3 22
M  V30 25 1 5 23
M  V30 26 1 6 24
M  V30 27 1 6 25
M  V30 28 1 9 26
M  V30 29 1 10 27
M  V30 30 1 10 28
M  V30 31 1 10 29
M  V30 32 1 12 30
M  V30 33 1 14 31
M  V30 34 1 16 32
M  V30 35 1 18 33
M  V30 36 1 20 34
M  V30 37 1 20 35
M  V30 END BOND
M  V30 END CTAB
M  END
>  <Molecule Name>
ZHMRPXZRUZLCNL-HEBYQKOSNA-N

>  <hs_clash>
1.0

>  <hs_total>
125.3888778669488

>  <Total Molweight>
269.307

>  <cLogP>
1.6509

>  <H-Acceptors>
6

>  <H-Donors>
2

>  <Polar Surface Area>
89.71

>  <Non-H Atoms>
20

>  <sp3-Atoms>
4

$$$$
SIHPQWGESUQLJI-VNHAUOCNNA-N
Actelion Java MolfileCreator 2.0

  0  0  0  0  0  0              0 V3000
M  V30 BEGIN CTAB
M  V30 COUNTS 39 41 0 0 0
M  V30 BEGIN ATOM
M  V30 1 S 33.1313 10.501 64.7 0
M  V30 2 O 34.31 9.9652 63.7619 0
M  V30 3 O 33.6959 11.0401 66.1074 0
M  V30 4 N 32.3623 11.634 63.9479 0
M  V30 5 C 32.1541 9.2635 64.9695 0
M  V30 6 C 31.109 8.9446 64.0291 0
M  V30 7 C 32.3377 8.4526 66.1663 0
M  V30 8 C 30.2712 7.8373 64.2811 0
M  V30 9 C 31.5049 7.3436 66.4242 0
M  V30 10 C 30.445 6.9987 65.4876 0
M  V30 11 N 29.6677 5.8997 65.7858 0
M  V30 12 C 28.6157 5.3671 65.0798 0
M  V30 13 S 27.5914 6.182 63.9485 0
M  V30 14 N 28.315 4.0797 65.2565 0
M  V30 15 C 26.7554 4.7234 63.7203 0
M  V30 16 C 27.2628 3.7148 64.4965 0
M  V30 17 C 25.6092 4.5927 62.7706 0
M  V30 18 N 26.7833 2.4555 64.5072 0
M  V30 19 O 24.9911 3.405 62.664 0
M  V30 20 C 25.1674 5.7353 61.9349 0
M  V30 21 C 23.7672 6.1331 61.8964 0
M  V30 22 C 26.15 6.4741 61.1203 0
M  V30 23 C 23.3557 7.2343 61.0784 0
M  V30 24 C 25.7445 7.5792 60.3001 0
M  V30 25 C 24.3225 7.9702 60.2762 0
M  V30 26 H 31.407 11.6425 64.2434 0
M  V30 27 H 32.4045 11.4688 62.9626 0
M  V30 28 H 30.9686 9.5456 63.1431 0
M  V30 29 H 33.1215 8.7042 66.8655 0
M  V30 30 H 29.4868 7.5973 63.5785 0
M  V30 31 H 31.6535 6.7513 67.3152 0
M  V30 32 H 30.1874 5.195 66.2685 0
M  V30 33 H 27.3218 1.8988 65.1395 0
M  V30 34 H 26.0068 2.3887 63.8805 0
M  V30 35 H 23.0376 5.5974 62.4858 0
M  V30 36 H 27.1884 6.1791 61.1417 0
M  V30 37 H 22.3151 7.5227 61.0563 0
M  V30 38 H 26.4705 8.1174 59.7087 0
M  V30 39 H 23.9989 8.8001 59.6653 0
M  V30 END ATOM
M  V30 BEGIN BOND
M  V30 1 2 1 2
M  V30 2 2 1 3
M  V30 3 1 1 4
M  V30 4 1 1 5
M  V30 5 2 5 6
M  V30 6 1 5 7
M  V30 7 1 6 8
M  V30 8 2 7 9
M  V30 9 2 8 10
M  V30 10 1 10 11
M  V30 11 1 11 12
M  V30 12 1 12 13
M  V30 13 2 12 14
M  V30 14 1 13 15
M  V30 15 1 14 16
M  V30 16 1 15 17
M  V30 17 1 16 18
M  V30 18 2 17 19
M  V30 19 1 17 20
M  V30 20 2 20 21
M  V30 21 1 20 22
M  V30 22 1 21 23
M  V30 23 2 22 24
M  V30 24 2 23 25
M  V30 25 1 9 10
M  V30 26 2 15 16
M  V30 27 1 24 25
M  V30 28 1 4 26
M  V30 29 1 4 27
M  V30 30 1 6 28
M  V30 31 1 7 29
M  V30 32 1 8 30
M  V30 33 1 9 31
M  V30 34 1 11 32
M  V30 35 1 18 33
M  V30 36 1 18 34
M  V30 37 1 21 35
M  V30 38 1 22 36
M  V30 39 1 23 37
M  V30 40 1 24 38
M  V30 41 1 25 39
M  V30 END BOND
M  V30 END CTAB
M  END
>  <Molecule Name>
SIHPQWGESUQLJI-VNHAUOCNNA-N

>  <hs_clash>
1.0

>  <hs_total>
125.19189326484877

>  <Total Molweight>
374.444

>  <cLogP>
2.4656

>  <H-Acceptors>
7

>  <H-Donors>
3

>  <Polar Surface Area>
164.79

>  <Non-H Atoms>
25

>  <sp3-Atoms>
1

$$$$
OUEGMEMDEAOAEG-XBTAAFKLNA-N
Actelion Java MolfileCreator 2.0

  0  0  0  0  0  0              0 V3000
M  V30 BEGIN CTAB
M  V30 COUNTS 45 48 0 0 0
M  V30 BEGIN ATOM
M  V30 1 Cl 29.8222 10.144 62.9621 0
M  V30 2 C 30.2123 9.2627 64.4011 0
M  V30 3 C 29.5653 8.0439 64.6869 0
M  V30 4 C 31.1612 9.8043 65.2785 0
M  V30 5 C 29.8592 7.3244 65.8629 0
M  V30 6 C 31.4656 9.1041 66.4532 0
M  V30 7 N 29.6035 5.9701 65.9931 0
M  V30 8 C 30.7986 7.8952 66.7214 0
M  V30 9 C 28.4769 5.4685 65.5174 0
M  V30 10 N 27.6349 6.4311 64.7995 0
M  V30 11 N 28.0042 4.2832 65.5438 0
M  V30 12 C 26.5589 6.2297 64.21 0
M  V30 13 C 26.751 3.9263 64.9059 0
M  V30 14 O 25.8261 7.0969 63.5111 0
M  V30 15 C 26.0461 4.8656 64.28 0
M  V30 16 N 26.0893 2.7903 64.8165 0
M  V30 17 C 26.2942 8.4674 63.4455 0
M  V30 18 N 24.8954 4.1735 63.768 0
M  V30 19 C 24.9971 2.949 64.1457 0
M  V30 20 C 25.3106 9.1959 62.4569 0
M  V30 21 C 25.5123 10.7479 62.6311 0
M  V30 22 C 25.6051 8.8026 60.9904 0
M  V30 23 C 24.6016 11.4529 61.5974 0
M  V30 24 C 24.6967 9.495 59.9518 0
M  V30 25 C 24.7263 11.0525 60.1346 0
M  V30 26 H 28.8333 7.6553 63.9946 0
M  V30 27 H 31.6478 10.7421 65.0543 0
M  V30 28 H 32.2024 9.4873 67.1434 0
M  V30 29 H 30.1294 5.4383 66.6567 0
M  V30 30 H 31.0266 7.3804 67.6432 0
M  V30 31 H 26.3913 1.924 65.2142 0
M  V30 32 H 27.3242 8.5046 63.0612 0
M  V30 33 H 26.2569 8.9356 64.4403 0
M  V30 34 H 24.2784 2.171 63.9341 0
M  V30 35 H 24.2735 8.9317 62.7118 0
M  V30 36 H 25.2294 11.0518 63.6501 0
M  V30 37 H 26.5639 11.0131 62.4485 0
M  V30 38 H 25.4732 7.7149 60.8927 0
M  V30 39 H 26.6489 9.0672 60.7661 0
M  V30 40 H 23.5604 11.2652 61.8989 0
M  V30 41 H 24.8123 12.5307 61.6593 0
M  V30 42 H 23.6645 9.1371 60.0798 0
M  V30 43 H 25.0492 9.2441 58.9406 0
M  V30 44 H 23.8897 11.493 59.5726 0
M  V30 45 H 25.6772 11.4392 59.7398 0
M  V30 END ATOM
M  V30 BEGIN BOND
M  V30 1 1 1 2
M  V30 2 2 2 3
M  V30 3 1 2 4
M  V30 4 1 3 5
M  V30 5 2 4 6
M  V30 6 1 5 7
M  V30 7 2 5 8
M  V30 8 1 7 9
M  V30 9 2 9 10
M  V30 10 1 9 11
M  V30 11 1 10 12
M  V30 12 2 11 13
M  V30 13 1 12 14
M  V30 14 2 12 15
M  V30 15 1 13 16
M  V30 16 1 14 17
M  V30 17 1 15 18
M  V30 18 1 16 19
M  V30 19 1 17 20
M  V30 20 1 20 21
M  V30 21 1 20 22
M  V30 22 1 21 23
M  V30 23 1 22 24
M  V30 24 1 23 25
M  V30 25 1 6 8
M  V30 26 1 13 15
M  V30 27 2 18 19
M  V30 28 1 24 25
M  V30 29 1 3 26
M  V30 30 1 4 27
M  V30 31 1 6 28
M  V30 32 1 7 29
M  V30 33 1 8 30
M  V30 34 1 16 31
M  V30 35 1 17 32
M  V30 36 1 17 33
M  V30 37 1 19 34
M  V30 38 1 20 35
M  V30 39 1 21 36
M  V30 40 1 21 37
M  V30 41 1 22 38
M  V30 42 1 22 39
M  V30 43 1 23 40
M  V30 44 1 23 41
M  V30 45 1 24 42
M  V30 46 1 24 43
M  V30 47 1 25 44
M  V30 48 1 25 45
M  V30 END BOND
M  V30 END CTAB
M  END
>  <Molecule Name>
OUEGMEMDEAOAEG-XBTAAFKLNA-N

>  <hs_clash>
0.0

>  <hs_total>
124.96882692274303

>  <Total Molweight>
357.844

>  <cLogP>
4.5166

>  <H-Acceptors>
6

>  <H-Donors>
2

>  <Polar Surface Area>
75.72

>  <Non-H Atoms>
25

>  <sp3-Atoms>
8

$$$$
WGVVIVGNBSSANI-NPVYFSBINA-N
Actelion Java MolfileCreator 2.0

  0  0  0  0  0  0              0 V3000
M  V30 BEGIN CTAB
M  V30 COUNTS 38 40 0 0 0
M  V30 BEGIN ATOM
M  V30 1 Cl 23.9182 4.4876 61.6498 0
M  V30 2 C 25.2477 4.9327 62.6676 0
M  V30 3 C 25.8045 6.2205 62.6185 0
M  V30 4 C 25.7401 3.9912 63.5748 0
M  V30 5 C 25.372 7.1481 61.6709 0
M  V30 6 C 26.8876 6.5329 63.4492 0
M  V30 7 C 26.7883 4.3318 64.4335 0
M  V30 8 C 26.1969 7.4402 60.5776 0
M  V30 9 C 24.1288 7.7791 61.7839 0
M  V30 10 C 27.358 5.6005 64.3863 0
M  V30 11 N 27.4723 3.6279 65.3309 0
M  V30 12 C 25.7816 8.3489 59.5993 0
M  V30 13 C 23.7184 8.7008 60.8124 0
M  V30 14 C 28.3935 5.5296 65.3179 0
M  V30 15 N 28.3386 4.3254 65.88 0
M  V30 16 C 24.5373 8.9769 59.7121 0
M  V30 17 N 29.2451 6.4755 65.766 0
M  V30 18 C 29.3948 7.7481 65.3629 0
M  V30 19 O 28.7592 8.3101 64.4713 0
M  V30 20 C 30.4629 8.5338 66.1356 0
M  V30 21 C 31.8459 8.4845 65.4738 0
M  V30 22 C 31.7895 8.7746 63.9687 0
M  V30 23 H 25.3106 3.0012 63.6124 0
M  V30 24 H 27.3644 7.4988 63.3681 0
M  V30 25 H 27.1603 6.9603 60.4899 0
M  V30 26 H 23.4842 7.5553 62.6211 0
M  V30 27 H 27.3094 2.663 65.5363 0
M  V30 28 H 26.4217 8.5658 58.7569 0
M  V30 29 H 22.7661 9.2007 60.9131 0
M  V30 30 H 24.2097 9.6721 58.9532 0
M  V30 31 H 29.8528 6.1873 66.5059 0
M  V30 32 H 30.1442 9.5849 66.2022 0
M  V30 33 H 30.5441 8.111 67.148 0
M  V30 34 H 32.4931 9.2338 65.9532 0
M  V30 35 H 32.2725 7.4817 65.6237 0
M  V30 36 H 32.8043 8.7262 63.5474 0
M  V30 37 H 31.1512 8.0269 63.4752 0
M  V30 38 H 31.3719 9.7789 63.8045 0
M  V30 END ATOM
M  V30 BEGIN BOND
M  V30 1 1 1 2
M  V30 2 2 2 3
M  V30 3 1 2 4
M  V30 4 1 3 5
M  V30 5 1 3 6
M  V30 6 2 4 7
M  V30 7 2 5 8
M  V30 8 1 5 9
M  V30 9 2 6 10
M  V30 10 1 7 11
M  V30 11 1 8 12
M  V30 12 2 9 13
M  V30 13 1 10 14
M  V30 14 1 11 15
M  V30 15 2 12 16
M  V30 16 1 14 17
M  V30 17 1 17 18
M  V30 18 2 18 19
M  V30 19 1 18 20
M  V30 20 1 20 21
M  V30 21 1 21 22
M  V30 22 1 7 10
M  V30 23 1 13 16
M  V30 24 2 14 15
M  V30 25 1 4 23
M  V30 26 1 6 24
M  V30 27 1 8 25
M  V30 28 1 9 26
M  V30 29 1 11 27
M  V30 30 1 12 28
M  V30 31 1 13 29
M  V30 32 1 16 30
M  V30 33 1 17 31
M  V30 34 1 20 32
M  V30 35 1 20 33
M  V30 36 1 21 34
M  V30 37 1 21 35
M  V30 38 1 22 36
M  V30 39 1 22 37
M  V30 40 1 22 38
M  V30 END BOND
M  V30 END CTAB
M  END
>  <Molecule Name>
WGVVIVGNBSSANI-NPVYFSBINA-N

>  <hs_clash>
0.0

>  <hs_total>
124.44391704321538

>  <Total Molweight>
313.787

>  <cLogP>
4.0992

>  <H-Acceptors>
4

>  <H-Donors>
2

>  <Polar Surface Area>
57.78

>  <Non-H Atoms>
22

>  <sp3-Atoms>
3

$$$$
UUISESFNPSRBFN-AGWNUXKNNA-O
Actelion Java MolfileCreator 2.0

  0  0  0  0  0  0              0 V3000
M  V30 BEGIN CTAB
M  V30 COUNTS 61 63 0 0 0
M  V30 BEGIN ATOM
M  V30 1 Br 26.8055 6.157 60.0148 0
M  V30 2 C 26.0876 7.6141 60.9953 0
M  V30 3 C 25.3842 7.4117 62.2281 0
M  V30 4 C 26.271 8.9069 60.4492 0
M  V30 5 N 25.1696 6.0002 62.7977 0
M  V30 6 C 24.875 8.5722 62.8975 0
M  V30 7 C 25.765 10.0433 61.1107 0
M  V30 8 C 26.1842 5.2215 63.6711 0
M  V30 9 C 23.8988 5.3049 62.3549 0
M  V30 10 C 25.0634 9.879 62.3404 0
M  V30 11 C 25.9692 11.428 60.4985 0
M  V30 12 N 25.9699 3.9072 63.9864 0
M  V30 13 C 27.3438 5.8341 64.1991 0
M  V30 14 C 23.8697 4.126 61.5691 0
M  V30 15 C 26.8563 3.2472 64.7523 0
M  V30 16 C 28.2534 5.0432 65.0304 0
M  V30 17 N 23.8323 3.1604 60.9247 0
M  V30 18 N 27.9751 3.7528 65.2845 0
M  V30 19 N 29.4859 5.6391 65.6055 0
M  V30 20 C 29.9887 7.0034 65.4568 0
M  V30 21 C 30.6855 7.7047 66.4819 0
M  V30 22 C 29.7375 7.613 64.2339 0
M  V30 23 C 31.1006 9.0477 66.227 0
M  V30 24 C 30.1274 8.8898 63.9923 0
M  V30 25 C 30.8033 9.6242 64.9593 0
M  V30 26 O 31.1574 10.9329 64.6515 0
M  V30 27 C 30.6361 11.6124 63.4652 0
M  V30 28 C 31.1518 13.0347 63.3573 0 CFG=1
M  V30 29 O 31.2666 13.6053 64.6581 0
M  V30 30 C 32.4595 13.1981 62.5527 0
M  V30 31 N 32.4824 14.3467 61.5978 0 CHG=1
M  V30 32 C 32.3786 13.9581 60.1618 0
M  V30 33 C 33.6042 15.2946 61.8468 0
M  V30 34 H 26.8035 9.0234 59.5172 0
M  V30 35 H 24.344 8.4608 63.8314 0
M  V30 36 H 23.3314 6.0561 61.7858 0
M  V30 37 H 23.3562 5.0595 63.28 0
M  V30 38 H 24.6715 10.744 62.8554 0
M  V30 39 H 25.4983 11.4635 59.5052 0
M  V30 40 H 25.5107 12.1878 61.149 0
M  V30 41 H 27.046 11.6305 60.4014 0
M  V30 42 H 27.556 6.8727 63.992 0
M  V30 43 H 26.6446 2.2084 64.958 0
M  V30 44 H 29.7125 5.249 66.498 0
M  V30 45 H 30.8953 7.2324 67.4303 0
M  V30 46 H 29.2224 7.0608 63.4621 0
M  V30 47 H 31.6283 9.614 66.9802 0
M  V30 48 H 29.9096 9.3417 63.0359 0
M  V30 49 H 30.9451 11.0528 62.5702 0
M  V30 50 H 29.5377 11.6357 63.5223 0
M  V30 51 H 30.384 13.604 62.8125 0
M  V30 52 H 30.5494 13.3014 65.2022 0
M  V30 53 H 33.2837 13.3344 63.2682 0
M  V30 54 H 32.6219 12.2748 61.9776 0
M  V30 55 H 31.65 14.8665 61.7911 0
M  V30 56 H 32.4032 14.8611 59.5344 0
M  V30 57 H 33.2225 13.3043 59.8973 0
M  V30 58 H 31.4327 13.4216 59.995 0
M  V30 59 H 33.5631 16.1128 61.1129 0
M  V30 60 H 33.5156 15.7085 62.8624 0
M  V30 61 H 34.5618 14.7625 61.75 0
M  V30 END ATOM
M  V30 BEGIN BOND
M  V30 1 1 1 2
M  V30 2 2 2 3
M  V30 3 1 2 4
M  V30 4 1 3 5
M  V30 5 1 3 6
M  V30 6 2 4 7
M  V30 7 1 5 8
M  V30 8 1 5 9
M  V30 9 2 6 10
M  V30 10 1 7 11
M  V30 11 2 8 12
M  V30 12 1 8 13
M  V30 13 1 9 14
M  V30 14 1 12 15
M  V30 15 2 13 16
M  V30 16 3 14 17
M  V30 17 2 15 18
M  V30 18 1 16 19
M  V30 19 1 19 20
M  V30 20 2 20 21
M  V30 21 1 20 22
M  V30 22 1 21 23
M  V30 23 2 22 24
M  V30 24 2 23 25
M  V30 25 1 25 26
M  V30 26 1 26 27
M  V30 27 1 27 28
M  V30 28 1 28 29
M  V30 29 1 28 30
M  V30 30 1 30 31
M  V30 31 1 31 32
M  V30 32 1 31 33
M  V30 33 1 7 10
M  V30 34 1 16 18
M  V30 35 1 24 25
M  V30 36 1 4 34
M  V30 37 1 6 35
M  V30 38 1 9 36
M  V30 39 1 9 37
M  V30 40 1 10 38
M  V30 41 1 11 39
M  V30 42 1 11 40
M  V30 43 1 11 41
M  V30 44 1 13 42
M  V30 45 1 15 43
M  V30 46 1 19 44
M  V30 47 1 21 45
M  V30 48 1 22 46
M  V30 49 1 23 47
M  V30 50 1 24 48
M  V30 51 1 27 49
M  V30 52 1 27 50
M  V30 53 1 28 51
M  V30 54 1 29 52
M  V30 55 1 30 53
M  V30 56 1 30 54
M  V30 57 1 31 55
M  V30 58 1 32 56
M  V30 59 1 32 57
M  V30 60 1 32 58
M  V30 61 1 33 59
M  V30 62 1 33 60
M  V30 63 1 33 61
M  V30 END BOND
M  V30 BEGIN COLLECTION
M  V30 MDLV30/STERAC1 ATOMS=(1 28)
M  V30 END COLLECTION
M  V30 END CTAB
M  END
>  <Molecule Name>
UUISESFNPSRBFN-AGWNUXKNNA-O

>  <hs_clash>
51.0

>  <hs_total>
123.65592721193326

>  <Total Molweight>
512.430

>  <cLogP>
1.3021

>  <H-Acceptors>
8

>  <H-Donors>
3

>  <Polar Surface Area>
98.74

>  <Non-H Atoms>
33

>  <sp3-Atoms>
10

$$$$
MCZVEVRDKZUUIN-YHSKDTNENA-N
Actelion Java MolfileCreator 2.0

  0  0  0  0  0  0              0 V3000
M  V30 BEGIN CTAB
M  V30 COUNTS 34 35 0 0 0
M  V30 BEGIN ATOM
M  V30 1 O 24.6454 8.8412 62.1472 0
M  V30 2 N 24.8495 7.6828 62.7527 0 CHG=1
M  V30 3 O 23.8301 6.8338 62.8631 0 CHG=-1
M  V30 4 C 26.007 7.3864 63.2243 0
M  V30 5 C 26.2209 6.1339 63.876 0
M  V30 6 C 27.096 8.2997 63.1059 0
M  V30 7 C 27.4964 5.776 64.4095 0
M  V30 8 C 28.373 7.9684 63.628 0
M  V30 9 C 28.6007 6.7022 64.2909 0
M  V30 10 C 27.6296 4.5409 65.019 0
M  V30 11 N 29.7778 6.3855 64.7756 0
M  V30 12 O 28.4253 4.3576 65.9158 0
M  V30 13 N 26.8525 3.4885 64.5868 0
M  V30 14 C 31.0261 7.1834 64.5575 0
M  V30 15 C 31.1433 8.2705 65.5953 0
M  V30 16 C 31.1887 7.9425 66.9837 0
M  V30 17 C 31.1993 9.6344 65.1843 0
M  V30 18 C 31.2878 8.9754 67.9549 0
M  V30 19 C 31.2975 10.6653 66.1553 0
M  V30 20 C 31.3417 10.3354 67.5428 0
M  V30 21 O 31.4331 11.3154 68.468 0
M  V30 22 H 25.3977 5.4405 63.9677 0
M  V30 23 H 26.9473 9.2504 62.6155 0
M  V30 24 H 29.187 8.6715 63.5293 0
M  V30 25 H 29.7931 5.7213 65.523 0
M  V30 26 H 26.9489 2.5884 65.0116 0
M  V30 27 H 26.1919 3.6249 63.8485 0
M  V30 28 H 31.8989 6.5178 64.6296 0
M  V30 29 H 30.9945 7.6397 63.557 0
M  V30 30 H 31.1472 6.9096 67.2963 0
M  V30 31 H 31.1667 9.8836 64.1338 0
M  V30 32 H 31.3223 8.7277 69.0056 0
M  V30 33 H 31.3386 11.6989 65.8442 0
M  V30 34 H 31.1097 10.9953 69.3021 0
M  V30 END ATOM
M  V30 BEGIN BOND
M  V30 1 2 1 2
M  V30 2 1 2 3
M  V30 3 1 2 4
M  V30 4 2 4 5
M  V30 5 1 4 6
M  V30 6 1 5 7
M  V30 7 2 6 8
M  V30 8 2 7 9
M  V30 9 1 7 10
M  V30 10 1 9 11
M  V30 11 2 10 12
M  V30 12 1 10 13
M  V30 13 1 11 14
M  V30 14 1 14 15
M  V30 15 2 15 16
M  V30 16 1 15 17
M  V30 17 1 16 18
M  V30 18 2 17 19
M  V30 19 2 18 20
M  V30 20 1 20 21
M  V30 21 1 8 9
M  V30 22 1 19 20
M  V30 23 1 5 22
M  V30 24 1 6 23
M  V30 25 1 8 24
M  V30 26 1 11 25
M  V30 27 1 13 26
M  V30 28 1 13 27
M  V30 29 1 14 28
M  V30 30 1 14 29
M  V30 31 1 16 30
M  V30 32 1 17 31
M  V30 33 1 18 32
M  V30 34 1 19 33
M  V30 35 1 21 34
M  V30 END BOND
M  V30 END CTAB
M  END
>  <Molecule Name>
MCZVEVRDKZUUIN-YHSKDTNENA-N

>  <hs_clash>
0.0

>  <hs_total>
123.52498566842047

>  <Total Molweight>
287.274

>  <cLogP>
0.5447

>  <H-Acceptors>
7

>  <H-Donors>
3

>  <Polar Surface Area>
121.17

>  <Non-H Atoms>
21

>  <sp3-Atoms>
3

$$$$
PNGOOMNEARANOE-DLGLGFIGNA-N
Actelion Java MolfileCreator 2.0

  0  0  0  0  0  0              0 V3000
M  V30 BEGIN CTAB
M  V30 COUNTS 31 32 0 0 0
M  V30 BEGIN ATOM
M  V30 1 O 24.5788 9.2341 62.4289 0
M  V30 2 N 24.7525 8.1353 62.9269 0 CHG=1
M  V30 3 O 23.6692 7.3379 63.0264 0 CHG=-1
M  V30 4 C 25.9745 7.7367 63.3568 0
M  V30 5 C 26.1719 6.432 63.9465 0
M  V30 6 C 27.1214 8.5892 63.2435 0
M  V30 7 C 27.4647 5.9573 64.4169 0
M  V30 8 C 28.4021 8.1731 63.6858 0
M  V30 9 C 28.6323 6.86 64.2796 0
M  V30 10 C 27.5492 4.6588 64.9394 0
M  V30 11 N 29.8503 6.467 64.6775 0
M  V30 12 O 28.5133 4.3362 65.8222 0
M  V30 13 N 26.6911 3.654 64.5788 0
M  V30 14 C 31.114 7.2344 64.5966 0
M  V30 15 C 31.3571 8.1559 65.7884 0
M  V30 16 N 32.2625 9.2075 65.6694 0
M  V30 17 C 30.6901 7.987 67.0382 0
M  V30 18 C 32.5327 10.0827 66.7052 0
M  V30 19 N 30.9664 8.866 68.0649 0
M  V30 20 C 31.8657 9.9055 67.936 0
M  V30 21 H 25.3181 5.7776 64.0428 0
M  V30 22 H 27.0069 9.572 62.8107 0
M  V30 23 H 29.2359 8.8512 63.5798 0
M  V30 24 H 29.8656 5.6811 65.2958 0
M  V30 25 H 26.8005 2.7394 64.9677 0
M  V30 26 H 25.9549 3.8352 63.9265 0
M  V30 27 H 31.9487 6.5209 64.5352 0
M  V30 28 H 31.0882 7.8484 63.6844 0
M  V30 29 H 29.9806 7.1848 67.1783 0
M  V30 30 H 33.2413 10.8874 66.5746 0
M  V30 31 H 32.0556 10.5723 68.7641 0
M  V30 END ATOM
M  V30 BEGIN BOND
M  V30 1 2 1 2
M  V30 2 1 2 3
M  V30 3 1 2 4
M  V30 4 2 4 5
M  V30 5 1 4 6
M  V30 6 1 5 7
M  V30 7 2 6 8
M  V30 8 2 7 9
M  V30 9 1 7 10
M  V30 10 1 9 11
M  V30 11 2 10 12
M  V30 12 1 10 13
M  V30 13 1 11 14
M  V30 14 1 14 15
M  V30 15 2 15 16
M  V30 16 1 15 17
M  V30 17 1 16 18
M  V30 18 2 17 19
M  V30 19 2 18 20
M  V30 20 1 8 9
M  V30 21 1 19 20
M  V30 22 1 5 21
M  V30 23 1 6 22
M  V30 24 1 8 23
M  V30 25 1 11 24
M  V30 26 1 13 25
M  V30 27 1 13 26
M  V30 28 1 14 27
M  V30 29 1 14 28
M  V30 30 1 17 29
M  V30 31 1 18 30
M  V30 32 1 20 31
M  V30 END BOND
M  V30 END CTAB
M  END
>  <Molecule Name>
PNGOOMNEARANOE-DLGLGFIGNA-N

>  <hs_clash>
0.0

>  <hs_total>
123.2575321846703

>  <Total Molweight>
273.251

>  <cLogP>
-1.0574

>  <H-Acceptors>
8

>  <H-Donors>
2

>  <Polar Surface Area>
126.72

>  <Non-H Atoms>
20

>  <sp3-Atoms>
2

$$$$
CASBTGCUPQIBNJ-BWWUCZQUNA-M
Actelion Java MolfileCreator 2.0

  0  0  0  0  0  0              0 V3000
M  V30 BEGIN CTAB
M  V30 COUNTS 35 36 0 0 0
M  V30 BEGIN ATOM
M  V30 1 O 23.3797 6.6918 63.018 0
M  V30 2 N 24.3707 7.5783 62.8471 0 CHG=1
M  V30 3 O 24.0815 8.7379 62.2431 0 CHG=-1
M  V30 4 C 25.6618 7.3004 63.2857 0
M  V30 5 C 25.9532 6.0547 63.9272 0
M  V30 6 C 26.7179 8.2423 63.104 0
M  V30 7 C 27.2706 5.7386 64.3816 0
M  V30 8 C 28.037 7.9576 63.5435 0
M  V30 9 C 28.364 6.6898 64.1997 0
M  V30 10 C 27.4614 4.4087 65.0157 0
M  V30 11 N 29.5923 6.3755 64.6233 0
M  V30 12 O 28.3998 4.2668 65.9562 0
M  V30 13 N 26.7335 3.3364 64.6226 0
M  V30 14 C 30.8213 7.1589 64.4701 0
M  V30 15 C 30.9801 8.2907 65.4415 0
M  V30 16 C 31.1494 9.6112 64.9455 0
M  V30 17 C 30.975 8.0576 66.8532 0
M  V30 18 C 31.3129 10.6971 65.84 0
M  V30 19 C 31.1396 9.1417 67.7588 0
M  V30 20 C 31.3135 10.489 67.2601 0
M  V30 21 C 31.4946 11.6628 68.1293 0
M  V30 22 O 31.4979 11.479 69.3636 0
M  V30 23 O 31.6393 12.8022 67.611 0 CHG=-1
M  V30 24 H 25.159 5.3372 64.0715 0
M  V30 25 H 26.5101 9.1876 62.6245 0
M  V30 26 H 28.8152 8.691 63.3913 0
M  V30 27 H 29.633 5.6504 65.3105 0
M  V30 28 H 26.8991 2.4412 65.0358 0
M  V30 29 H 26.0304 3.4402 63.9191 0
M  V30 30 H 31.6765 6.4789 64.5967 0
M  V30 31 H 30.8336 7.5783 63.4534 0
M  V30 32 H 31.1535 9.7882 63.8802 0
M  V30 33 H 30.8458 7.0548 67.2325 0
M  V30 34 H 31.4387 11.6956 65.4483 0
M  V30 35 H 31.1346 8.9589 68.8234 0
M  V30 END ATOM
M  V30 BEGIN BOND
M  V30 1 2 1 2
M  V30 2 1 2 3
M  V30 3 1 2 4
M  V30 4 2 4 5
M  V30 5 1 4 6
M  V30 6 1 5 7
M  V30 7 2 6 8
M  V30 8 2 7 9
M  V30 9 1 7 10
M  V30 10 1 9 11
M  V30 11 2 10 12
M  V30 12 1 10 13
M  V30 13 1 11 14
M  V30 14 1 14 15
M  V30 15 2 15 16
M  V30 16 1 15 17
M  V30 17 1 16 18
M  V30 18 2 17 19
M  V30 19 2 18 20
M  V30 20 1 20 21
M  V30 21 2 21 22
M  V30 22 1 21 23
M  V30 23 1 8 9
M  V30 24 1 19 20
M  V30 25 1 5 24
M  V30 26 1 6 25
M  V30 27 1 8 26
M  V30 28 1 11 27
M  V30 29 1 13 28
M  V30 30 1 13 29
M  V30 31 1 14 30
M  V30 32 1 14 31
M  V30 33 1 16 32
M  V30 34 1 17 33
M  V30 35 1 18 34
M  V30 36 1 19 35
M  V30 END BOND
M  V30 END CTAB
M  END
>  <Molecule Name>
CASBTGCUPQIBNJ-BWWUCZQUNA-M

>  <hs_clash>
0.0

>  <hs_total>
123.12968759026678

>  <Total Molweight>
314.276

>  <cLogP>
-1.7005

>  <H-Acceptors>
8

>  <H-Donors>
2

>  <Polar Surface Area>
141.07

>  <Non-H Atoms>
23

>  <sp3-Atoms>
3

$$$$
HGAKLLFPOGATII-JKHZCMBUNA-N
Actelion Java MolfileCreator 2.0

  0  0  0  0  0  0              0 V3000
M  V30 BEGIN CTAB
M  V30 COUNTS 37 40 0 0 0
M  V30 BEGIN ATOM
M  V30 1 S 30.996 10.597 65.1122 0
M  V30 2 O 31.7647 11.0735 63.6912 0
M  V30 3 O 30.616 11.8527 66.0 0
M  V30 4 N 32.1044 9.6344 66.0206 0
M  V30 5 C 29.5863 9.6409 64.7366 0
M  V30 6 C 28.4242 9.7395 65.5445 0
M  V30 7 C 29.6285 8.7818 63.6161 0
M  V30 8 C 27.2781 8.9617 65.2198 0
M  V30 9 C 28.4922 8.0108 63.2936 0
M  V30 10 C 27.3018 8.0871 64.0872 0
M  V30 11 N 26.2718 7.3782 63.7585 0
M  V30 12 N 25.2751 7.8546 62.971 0
M  V30 13 C 25.9617 6.0207 64.1047 0
M  V30 14 C 24.313 6.8705 62.7774 0
M  V30 15 C 24.7121 5.7137 63.4728 0
M  V30 16 C 26.6578 4.996 64.9214 0
M  V30 17 C 23.0377 7.0635 61.9303 0
M  V30 18 C 24.1618 4.2408 63.4231 0
M  V30 19 C 26.1371 3.7 65.0983 0
M  V30 20 C 27.851 5.0345 65.6269 0
M  V30 21 O 22.2047 6.1721 61.7761 0
M  V30 22 N 22.8358 8.2413 61.3445 0
M  V30 23 C 24.7993 3.2391 64.4579 0
M  V30 24 N 27.0098 2.9916 65.8928 0
M  V30 25 N 28.0469 3.7917 66.217 0
M  V30 26 H 32.6319 10.2224 66.6341 0
M  V30 27 H 31.5982 8.9608 66.5592 0
M  V30 28 H 28.4094 10.3998 66.3993 0
M  V30 29 H 30.5215 8.7163 63.0126 0
M  V30 30 H 26.3887 9.0313 65.829 0
M  V30 31 H 28.5198 7.354 62.4368 0
M  V30 32 H 23.3962 3.9362 62.7249 0
M  V30 33 H 28.5136 5.8839 65.7047 0
M  V30 34 H 22.0172 8.3903 60.7896 0
M  V30 35 H 23.5026 8.9778 61.4594 0
M  V30 36 H 24.3372 2.2949 64.7055 0
M  V30 37 H 26.8946 2.0422 66.1819 0
M  V30 END ATOM
M  V30 BEGIN BOND
M  V30 1 2 1 2
M  V30 2 2 1 3
M  V30 3 1 1 4
M  V30 4 1 1 5
M  V30 5 2 5 6
M  V30 6 1 5 7
M  V30 7 1 6 8
M  V30 8 2 7 9
M  V30 9 2 8 10
M  V30 10 1 10 11
M  V30 11 1 11 12
M  V30 12 1 11 13
M  V30 13 2 12 14
M  V30 14 2 13 15
M  V30 15 1 13 16
M  V30 16 1 14 17
M  V30 17 1 15 18
M  V30 18 2 16 19
M  V30 19 1 16 20
M  V30 20 2 17 21
M  V30 21 1 17 22
M  V30 22 2 18 23
M  V30 23 1 19 24
M  V30 24 2 20 25
M  V30 25 1 9 10
M  V30 26 1 14 15
M  V30 27 1 19 23
M  V30 28 1 24 25
M  V30 29 1 4 26
M  V30 30 1 4 27
M  V30 31 1 6 28
M  V30 32 1 7 29
M  V30 33 1 8 30
M  V30 34 1 9 31
M  V30 35 1 18 32
M  V30 36 1 20 33
M  V30 37 1 22 34
M  V30 38 1 22 35
M  V30 39 1 23 36
M  V30 40 1 24 37
M  V30 END BOND
M  V30 END CTAB
M  END
>  <Molecule Name>
HGAKLLFPOGATII-JKHZCMBUNA-N

>  <hs_clash>
2.0

>  <hs_total>
122.76282182838774

>  <Total Molweight>
356.365

>  <cLogP>
-0.7389

>  <H-Acceptors>
9

>  <H-Donors>
3

>  <Polar Surface Area>
158.13

>  <Non-H Atoms>
25

>  <sp3-Atoms>
1

$$$$
RBPFQBARVLHLER-ATOYLCHZNA-O
Actelion Java MolfileCreator 2.0

  0  0  0  0  0  0              0 V3000
M  V30 BEGIN CTAB
M  V30 COUNTS 53 56 0 0 0
M  V30 BEGIN ATOM
M  V30 1 O 29.2036 7.8992 63.9403 0
M  V30 2 C 29.9489 7.2749 64.6962 0
M  V30 3 N 29.6553 6.0952 65.2843 0
M  V30 4 C 31.3567 7.8141 64.9731 0
M  V30 5 C 28.5163 5.3785 65.0988 0
M  V30 6 C 31.3214 8.8978 66.0368 0
M  V30 7 N 28.4521 4.1058 65.4987 0
M  V30 8 C 27.4289 5.6499 64.333 0
M  V30 9 C 31.5252 8.5897 67.3809 0
M  V30 10 C 31.1382 10.2189 65.6427 0
M  V30 11 N 27.3755 3.592 65.101 0
M  V30 12 C 26.6977 4.5186 64.4033 0
M  V30 13 C 31.4946 9.583 68.3561 0
M  V30 14 C 31.1265 11.219 66.6157 0
M  V30 15 C 25.3305 4.127 63.8036 0
M  V30 16 C 31.3074 10.9081 67.9659 0
M  V30 17 C 24.966 4.5638 62.3647 0
M  V30 18 C 24.2619 5.1903 63.5727 0
M  V30 19 O 31.2997 11.8931 68.9121 0
M  V30 20 C 30.4174 12.9782 68.4673 0
M  V30 21 C 30.6625 14.3852 69.0463 0
M  V30 22 N 31.4811 14.3344 70.2753 0 CHG=1
M  V30 23 C 31.143 15.498 71.1075 0
M  V30 24 C 32.8839 14.5662 69.8957 0
M  V30 25 C 32.3765 15.6894 71.9917 0
M  V30 26 C 33.5428 15.1517 71.1507 0
M  V30 27 H 30.3358 5.716 65.9115 0
M  V30 28 H 31.9966 6.9895 65.3203 0
M  V30 29 H 31.7708 8.2341 64.0447 0
M  V30 30 H 27.2023 6.5583 63.7943 0
M  V30 31 H 31.7099 7.5659 67.6702 0
M  V30 32 H 31.0072 10.467 64.6 0
M  V30 33 H 27.0753 2.6541 65.2742 0
M  V30 34 H 31.6135 9.3306 69.3994 0
M  V30 35 H 30.9755 12.2473 66.3216 0
M  V30 36 H 24.9563 3.136 64.0999 0
M  V30 37 H 24.4185 3.8777 61.7018 0
M  V30 38 H 25.6769 5.1577 61.7715 0
M  V30 39 H 24.4637 6.2375 63.8422 0
M  V30 40 H 23.2055 4.9577 63.7725 0
M  V30 41 H 29.3874 12.6914 68.7268 0
M  V30 42 H 30.5129 13.0519 67.3742 0
M  V30 43 H 31.1851 14.9944 68.2944 0
M  V30 44 H 29.6927 14.8476 69.2831 0
M  V30 45 H 31.3628 13.4725 70.7683 0
M  V30 46 H 30.2508 15.2962 71.7187 0
M  V30 47 H 30.9664 16.3871 70.4843 0
M  V30 48 H 32.9455 15.2778 69.0592 0
M  V30 49 H 33.368 13.6211 69.61 0
M  V30 50 H 32.2765 15.1187 72.9269 0
M  V30 51 H 32.5251 16.7539 72.2262 0
M  V30 52 H 34.2339 15.9644 70.8824 0
M  V30 53 H 34.0899 14.3719 71.7008 0
M  V30 END ATOM
M  V30 BEGIN BOND
M  V30 1 2 1 2
M  V30 2 1 2 3
M  V30 3 1 2 4
M  V30 4 1 3 5
M  V30 5 1 4 6
M  V30 6 2 5 7
M  V30 7 1 5 8
M  V30 8 2 6 9
M  V30 9 1 6 10
M  V30 10 1 7 11
M  V30 11 2 8 12
M  V30 12 1 9 13
M  V30 13 2 10 14
M  V30 14 1 12 15
M  V30 15 2 13 16
M  V30 16 1 15 17
M  V30 17 1 15 18
M  V30 18 1 16 19
M  V30 19 1 19 20
M  V30 20 1 20 21
M  V30 21 1 21 22
M  V30 22 1 22 23
M  V30 23 1 22 24
M  V30 24 1 23 25
M  V30 25 1 24 26
M  V30 26 1 11 12
M  V30 27 1 14 16
M  V30 28 1 17 18
M  V30 29 1 25 26
M  V30 30 1 3 27
M  V30 31 1 4 28
M  V30 32 1 4 29
M  V30 33 1 8 30
M  V30 34 1 9 31
M  V30 35 1 10 32
M  V30 36 1 11 33
M  V30 37 1 13 34
M  V30 38 1 14 35
M  V30 39 1 15 36
M  V30 40 1 17 37
M  V30 41 1 17 38
M  V30 42 1 18 39
M  V30 43 1 18 40
M  V30 44 1 20 41
M  V30 45 1 20 42
M  V30 46 1 21 43
M  V30 47 1 21 44
M  V30 48 1 22 45
M  V30 49 1 23 46
M  V30 50 1 23 47
M  V30 51 1 24 48
M  V30 52 1 24 49
M  V30 53 1 25 50
M  V30 54 1 25 51
M  V30 55 1 26 52
M  V30 56 1 26 53
M  V30 END BOND
M  V30 END CTAB
M  END
>  <Molecule Name>
RBPFQBARVLHLER-ATOYLCHZNA-O

>  <hs_clash>
0.0

>  <hs_total>
121.96153767968676

>  <Total Molweight>
355.460

>  <cLogP>
0.5261

>  <H-Acceptors>
6

>  <H-Donors>
3

>  <Polar Surface Area>
71.45

>  <Non-H Atoms>
26

>  <sp3-Atoms>
12

$$$$
QNUKRWAIZMBVCU-OHLZEODANA-O
Actelion Java MolfileCreator 2.0

  0  0  0  0  0  0              0 V3000
M  V30 BEGIN CTAB
M  V30 COUNTS 30 32 0 0 0
M  V30 BEGIN ATOM
M  V30 1 O 29.1507 3.9522 65.788 0
M  V30 2 C 28.358 4.1627 64.9969 0
M  V30 3 N 27.4262 3.331 64.7573 0
M  V30 4 C 28.2095 5.2552 64.1692 0
M  V30 5 C 26.668 3.8032 63.8289 0
M  V30 6 C 27.113 4.9831 63.4481 0
M  V30 7 C 28.9311 6.2978 64.0696 0
M  V30 8 C 25.6068 3.2685 63.2826 0
M  V30 9 C 26.4958 5.6502 62.5104 0
M  V30 10 C 30.056 6.6303 64.7159 0
M  V30 11 C 25.002 3.9539 62.3443 0
M  V30 12 C 25.4161 5.1473 61.9332 0
M  V30 13 N 30.6755 5.979 65.5855 0
M  V30 14 C 30.6831 7.7205 64.4979 0
M  V30 15 O 24.7431 5.7167 61.0147 0
M  V30 16 C 31.6518 6.6357 65.8962 0
M  V30 17 N 31.7007 7.7066 65.259 0 CHG=1
M  V30 18 C 25.3206 6.6052 60.2372 0
M  V30 19 H 27.3114 2.5205 65.1801 0
M  V30 20 H 28.6101 6.9704 63.4099 0
M  V30 21 H 25.272 2.3759 63.5688 0
M  V30 22 H 26.8389 6.5411 62.2284 0
M  V30 23 H 24.1924 3.5614 61.9185 0
M  V30 24 H 30.4375 5.1567 65.9267 0
M  V30 25 H 30.426 8.4389 63.8588 0
M  V30 26 H 32.3253 6.3542 66.5728 0
M  V30 27 H 34.3243 9.1773 66.3314 0
M  V30 28 H 24.6468 6.9567 59.5661 0
M  V30 29 H 25.6674 7.3731 60.8011 0
M  V30 30 H 26.0931 6.1716 59.7449 0
M  V30 END ATOM
M  V30 BEGIN BOND
M  V30 1 2 1 2
M  V30 2 1 2 3
M  V30 3 1 2 4
M  V30 4 1 3 5
M  V30 5 1 4 6
M  V30 6 2 4 7
M  V30 7 1 5 8
M  V30 8 1 6 9
M  V30 9 1 7 10
M  V30 10 2 8 11
M  V30 11 2 9 12
M  V30 12 1 10 13
M  V30 13 2 10 14
M  V30 14 1 12 15
M  V30 15 1 13 16
M  V30 16 1 14 17
M  V30 17 1 15 18
M  V30 18 2 5 6
M  V30 19 1 11 12
M  V30 20 2 16 17
M  V30 21 1 3 19
M  V30 22 1 7 20
M  V30 23 1 8 21
M  V30 24 1 9 22
M  V30 25 1 11 23
M  V30 26 1 13 24
M  V30 27 1 14 25
M  V30 28 1 16 26
M  V30 29 1 17 27
M  V30 30 1 18 28
M  V30 31 1 18 29
M  V30 32 1 18 30
M  V30 END BOND
M  V30 END CTAB
M  END
>  <Molecule Name>
QNUKRWAIZMBVCU-OHLZEODANA-O

>  <hs_clash>
0.0

>  <hs_total>
121.40568696505436

>  <Total Molweight>
242.257

>  <cLogP>
-1.5679

>  <H-Acceptors>
5

>  <H-Donors>
3

>  <Polar Surface Area>
68.26

>  <Non-H Atoms>
18

>  <sp3-Atoms>
2

$$$$
YOZXSIIEHFGLLO-GPQMBLKYNA-N
Actelion Java MolfileCreator 2.0

  0  0  0  0  0  0              0 V3000
M  V30 BEGIN CTAB
M  V30 COUNTS 34 36 0 0 0
M  V30 BEGIN ATOM
M  V30 1 S 28.0104 6.2703 64.0115 0
M  V30 2 C 29.0049 5.4158 65.099 0
M  V30 3 C 27.0341 4.8851 63.7796 0
M  V30 4 N 28.6297 4.1566 65.2957 0
M  V30 5 N 30.1135 5.898 65.7551 0
M  V30 6 C 27.5343 3.8386 64.5688 0
M  V30 7 C 25.9135 4.8481 62.9099 0
M  V30 8 C 30.7397 7.1265 65.7044 0
M  V30 9 N 27.025 2.6036 64.6298 0
M  V30 10 O 25.1954 3.7072 62.7955 0
M  V30 11 C 25.4413 6.01 62.0561 0
M  V30 12 C 31.9026 7.3161 66.5862 0
M  V30 13 C 30.3349 8.2793 64.8168 0
M  V30 14 C 26.3843 6.8232 61.2441 0
M  V30 15 C 24.0128 6.3743 61.999 0
M  V30 16 C 32.6178 8.5702 66.5965 0
M  V30 17 C 31.0635 9.5286 64.836 0
M  V30 18 C 25.9012 7.9032 60.4611 0
M  V30 19 C 23.561 7.4894 61.1843 0
M  V30 20 C 32.2054 9.6687 65.7306 0
M  V30 21 C 24.5287 8.2528 60.4145 0
M  V30 22 H 30.6764 5.1806 66.1648 0
M  V30 23 H 27.572 2.0476 65.2552 0
M  V30 24 H 26.2233 2.5435 64.035 0
M  V30 25 H 32.2231 6.5112 67.2307 0
M  V30 26 H 29.4873 8.1691 64.1567 0
M  V30 27 H 27.439 6.5916 61.2507 0
M  V30 28 H 23.2938 5.8055 62.5699 0
M  V30 29 H 33.4669 8.6962 67.2521 0
M  V30 30 H 30.7652 10.3463 64.1966 0
M  V30 31 H 26.6048 8.4799 59.8794 0
M  V30 32 H 22.5133 7.7492 61.1511 0
M  V30 33 H 32.7536 10.5988 65.7524 0
M  V30 34 H 24.2025 9.0849 59.8083 0
M  V30 END ATOM
M  V30 BEGIN BOND
M  V30 1 1 1 2
M  V30 2 1 1 3
M  V30 3 2 2 4
M  V30 4 1 2 5
M  V30 5 2 3 6
M  V30 6 1 3 7
M  V30 7 1 5 8
M  V30 8 1 6 9
M  V30 9 2 7 10
M  V30 10 1 7 11
M  V30 11 2 8 12
M  V30 12 1 8 13
M  V30 13 2 11 14
M  V30 14 1 11 15
M  V30 15 1 12 16
M  V30 16 2 13 17
M  V30 17 1 14 18
M  V30 18 2 15 19
M  V30 19 2 16 20
M  V30 20 2 18 21
M  V30 21 1 4 6
M  V30 22 1 17 20
M  V30 23 1 19 21
M  V30 24 1 5 22
M  V30 25 1 9 23
M  V30 26 1 9 24
M  V30 27 1 12 25
M  V30 28 1 13 26
M  V30 29 1 14 27
M  V30 30 1 15 28
M  V30 31 1 16 29
M  V30 32 1 17 30
M  V30 33 1 18 31
M  V30 34 1 19 32
M  V30 35 1 20 33
M  V30 36 1 21 34
M  V30 END BOND
M  V30 END CTAB
M  END
>  <Molecule Name>
YOZXSIIEHFGLLO-GPQMBLKYNA-N

>  <hs_clash>
0.0

>  <hs_total>
121.0496899857704

>  <Total Molweight>
295.365

>  <cLogP>
3.7016

>  <H-Acceptors>
4

>  <H-Donors>
2

>  <Polar Surface Area>
96.25

>  <Non-H Atoms>
21

>  <sp3-Atoms>
0

$$$$
UUISESFNPSRBFN-PFXMAXHNNA-O
Actelion Java MolfileCreator 2.0

  0  0  0  0  0  0              0 V3000
M  V30 BEGIN CTAB
M  V30 COUNTS 61 63 0 0 0
M  V30 BEGIN ATOM
M  V30 1 Br 26.8179 6.1599 60.0426 0
M  V30 2 C 26.1003 7.6169 61.0232 0
M  V30 3 C 25.3967 7.4146 62.2561 0
M  V30 4 C 26.2834 8.9098 60.4773 0
M  V30 5 N 25.1822 6.0029 62.8257 0
M  V30 6 C 24.8876 8.575 62.9256 0
M  V30 7 C 25.7775 10.0463 61.1388 0
M  V30 8 C 26.1968 5.2243 63.6991 0
M  V30 9 C 23.9112 5.3077 62.383 0
M  V30 10 C 25.0759 9.8819 62.3685 0
M  V30 11 C 25.9819 11.431 60.5265 0
M  V30 12 N 25.9825 3.9099 64.0145 0
M  V30 13 C 27.3564 5.8369 64.2272 0
M  V30 14 C 23.8822 4.1286 61.5971 0
M  V30 15 C 26.869 3.25 64.7804 0
M  V30 16 C 28.2661 5.046 65.0585 0
M  V30 17 N 23.8448 3.1632 60.9528 0
M  V30 18 N 27.9878 3.7555 65.3127 0
M  V30 19 N 29.4988 5.6419 65.6337 0
M  V30 20 C 30.0015 7.0061 65.4848 0
M  V30 21 C 30.6985 7.7077 66.51 0
M  V30 22 C 29.7504 7.616 64.2619 0
M  V30 23 C 31.1135 9.0506 66.2553 0
M  V30 24 C 30.1404 8.8928 64.0204 0
M  V30 25 C 30.8162 9.6272 64.9873 0
M  V30 26 O 31.1702 10.9359 64.6797 0
M  V30 27 C 30.6489 11.6156 63.4932 0
M  V30 28 C 31.1517 13.0479 63.3531 0 CFG=1
M  V30 29 O 30.1044 13.8507 62.7849 0
M  V30 30 C 32.4605 13.2002 62.5336 0
M  V30 31 N 32.4066 14.1933 61.42 0 CHG=1
M  V30 32 C 32.2229 13.5968 60.0734 0
M  V30 33 C 33.5257 15.1798 61.454 0
M  V30 34 H 26.8161 9.0263 59.5451 0
M  V30 35 H 24.3565 8.4638 63.8595 0
M  V30 36 H 23.3438 6.0589 61.8138 0
M  V30 37 H 23.3686 5.0622 63.3081 0
M  V30 38 H 24.6841 10.747 62.8833 0
M  V30 39 H 25.5107 11.4665 59.5331 0
M  V30 40 H 25.5231 12.1909 61.177 0
M  V30 41 H 27.0585 11.6335 60.4293 0
M  V30 42 H 27.5686 6.8755 64.02 0
M  V30 43 H 26.6573 2.211 64.9861 0
M  V30 44 H 29.7253 5.2518 66.5261 0
M  V30 45 H 30.9082 7.2352 67.4585 0
M  V30 46 H 29.2353 7.0636 63.4901 0
M  V30 47 H 31.6412 9.6171 67.0084 0
M  V30 48 H 29.9224 9.3448 63.0639 0
M  V30 49 H 30.9558 11.0484 62.6023 0
M  V30 50 H 29.5507 11.6349 63.5554 0
M  V30 51 H 31.3626 13.4207 64.3665 0
M  V30 52 H 29.4616 14.054 63.4545 0
M  V30 53 H 33.2594 13.5076 63.2243 0
M  V30 54 H 32.7063 12.2188 62.1018 0
M  V30 55 H 31.5791 14.7298 61.5864 0
M  V30 56 H 32.1947 14.3963 59.3183 0
M  V30 57 H 33.0598 12.9168 59.8566 0
M  V30 58 H 31.2775 13.0348 60.0474 0
M  V30 59 H 33.4253 15.8781 60.6101 0
M  V30 60 H 33.4915 15.7406 62.3999 0
M  V30 61 H 34.4853 14.6479 61.3777 0
M  V30 END ATOM
M  V30 BEGIN BOND
M  V30 1 1 1 2
M  V30 2 2 2 3
M  V30 3 1 2 4
M  V30 4 1 3 5
M  V30 5 1 3 6
M  V30 6 2 4 7
M  V30 7 1 5 8
M  V30 8 1 5 9
M  V30 9 2 6 10
M  V30 10 1 7 11
M  V30 11 2 8 12
M  V30 12 1 8 13
M  V30 13 1 9 14
M  V30 14 1 12 15
M  V30 15 2 13 16
M  V30 16 3 14 17
M  V30 17 2 15 18
M  V30 18 1 16 19
M  V30 19 1 19 20
M  V30 20 2 20 21
M  V30 21 1 20 22
M  V30 22 1 21 23
M  V30 23 2 22 24
M  V30 24 2 23 25
M  V30 25 1 25 26
M  V30 26 1 26 27
M  V30 27 1 27 28
M  V30 28 1 28 29
M  V30 29 1 28 30
M  V30 30 1 30 31
M  V30 31 1 31 32
M  V30 32 1 31 33
M  V30 33 1 7 10
M  V30 34 1 16 18
M  V30 35 1 24 25
M  V30 36 1 4 34
M  V30 37 1 6 35
M  V30 38 1 9 36
M  V30 39 1 9 37
M  V30 40 1 10 38
M  V30 41 1 11 39
M  V30 42 1 11 40
M  V30 43 1 11 41
M  V30 44 1 13 42
M  V30 45 1 15 43
M  V30 46 1 19 44
M  V30 47 1 21 45
M  V30 48 1 22 46
M  V30 49 1 23 47
M  V30 50 1 24 48
M  V30 51 1 27 49
M  V30 52 1 27 50
M  V30 53 1 28 51
M  V30 54 1 29 52
M  V30 55 1 30 53
M  V30 56 1 30 54
M  V30 57 1 31 55
M  V30 58 1 32 56
M  V30 59 1 32 57
M  V30 60 1 32 58
M  V30 61 1 33 59
M  V30 62 1 33 60
M  V30 63 1 33 61
M  V30 END BOND
M  V30 BEGIN COLLECTION
M  V30 MDLV30/STERAC1 ATOMS=(1 28)
M  V30 END COLLECTION
M  V30 END CTAB
M  END
>  <Molecule Name>
UUISESFNPSRBFN-PFXMAXHNNA-O

>  <hs_clash>
46.0

>  <hs_total>
120.11012317932685

>  <Total Molweight>
512.430

>  <cLogP>
1.3021

>  <H-Acceptors>
8

>  <H-Donors>
3

>  <Polar Surface Area>
98.74

>  <Non-H Atoms>
33

>  <sp3-Atoms>
10

$$$$
YEJVJNPGUUFGLZ-RXGGVCHJNA-N
Actelion Java MolfileCreator 2.0

  0  0  0  0  0  0              0 V3000
M  V30 BEGIN CTAB
M  V30 COUNTS 36 39 0 0 0
M  V30 BEGIN ATOM
M  V30 1 S 33.438 10.9425 64.7465 0
M  V30 2 O 33.7362 11.4308 66.1233 0
M  V30 3 O 34.6407 10.2678 64.2061 0
M  V30 4 N 33.0631 12.1425 63.7256 0
M  V30 5 C 32.1872 9.7294 64.7856 0
M  V30 6 C 31.2089 9.6686 63.7892 0
M  V30 7 C 32.2107 8.7984 65.8277 0
M  V30 8 C 30.2432 8.6546 63.8326 0
M  V30 9 C 31.2499 7.7884 65.8638 0
M  V30 10 C 30.2409 7.7283 64.8918 0
M  V30 11 N 29.3519 6.7064 64.9195 0
M  V30 12 N 28.3206 6.6864 64.2097 0
M  V30 13 C 27.4581 5.6367 64.2069 0
M  V30 14 C 27.6267 4.4705 64.9519 0
M  V30 15 C 26.3803 5.4144 63.3361 0
M  V30 16 O 28.5465 4.2618 65.7649 0
M  V30 17 N 26.7283 3.5604 64.5661 0
M  V30 18 C 25.7426 6.1417 62.3002 0
M  V30 19 C 25.9317 4.114 63.6264 0
M  V30 20 N 25.8879 7.3705 61.7585 0
M  V30 21 C 24.6059 5.6284 61.6636 0
M  V30 22 C 24.8264 3.5842 62.9298 0
M  V30 23 N 24.9903 7.5481 60.8992 0
M  V30 24 N 24.2414 6.558 60.7638 0
M  V30 25 C 24.1574 4.3386 61.9376 0
M  V30 26 H 33.9019 12.5324 63.3462 0
M  V30 27 H 32.4966 11.7849 62.9833 0
M  V30 28 H 31.1976 10.3975 62.9926 0
M  V30 29 H 32.9655 8.8607 66.5975 0
M  V30 30 H 29.4998 8.5842 63.0525 0
M  V30 31 H 31.2831 7.046 66.6472 0
M  V30 32 H 26.6573 2.6259 64.9147 0
M  V30 33 H 24.4848 2.5854 63.1576 0
M  V30 34 H 24.8856 8.3946 60.3772 0
M  V30 35 H 23.4983 6.4718 60.1004 0
M  V30 36 H 23.3159 3.923 61.4034 0
M  V30 END ATOM
M  V30 BEGIN BOND
M  V30 1 2 1 2
M  V30 2 2 1 3
M  V30 3 1 1 4
M  V30 4 1 1 5
M  V30 5 2 5 6
M  V30 6 1 5 7
M  V30 7 1 6 8
M  V30 8 2 7 9
M  V30 9 2 8 10
M  V30 10 1 10 11
M  V30 11 2 11 12
M  V30 12 1 12 13
M  V30 13 1 13 14
M  V30 14 2 13 15
M  V30 15 2 14 16
M  V30 16 1 14 17
M  V30 17 1 15 18
M  V30 18 1 15 19
M  V30 19 2 18 20
M  V30 20 1 18 21
M  V30 21 2 19 22
M  V30 22 1 20 23
M  V30 23 1 21 24
M  V30 24 2 21 25
M  V30 25 1 9 10
M  V30 26 1 17 19
M  V30 27 1 22 25
M  V30 28 1 23 24
M  V30 29 1 4 26
M  V30 30 1 4 27
M  V30 31 1 6 28
M  V30 32 1 7 29
M  V30 33 1 8 30
M  V30 34 1 9 31
M  V30 35 1 17 32
M  V30 36 1 22 33
M  V30 37 1 23 34
M  V30 38 1 24 35
M  V30 39 1 25 36
M  V30 END BOND
M  V30 END CTAB
M  END
>  <Molecule Name>
YEJVJNPGUUFGLZ-RXGGVCHJNA-N

>  <hs_clash>
9.0

>  <hs_total>
119.74713665732224

>  <Total Molweight>
357.353

>  <cLogP>
0.0333

>  <H-Acceptors>
10

>  <H-Donors>
4

>  <Polar Surface Area>
158.78

>  <Non-H Atoms>
25

>  <sp3-Atoms>
1

$$$$
CGGMDMYBCWDOLZ-PDYUUQAHNA-O
Actelion Java MolfileCreator 2.0

  0  0  0  0  0  0              0 V3000
M  V30 BEGIN CTAB
M  V30 COUNTS 50 53 0 0 0
M  V30 BEGIN ATOM
M  V30 1 S 24.1433 5.0827 62.1845 0
M  V30 2 C 23.6565 6.4448 61.3041 0
M  V30 3 C 25.5154 5.8664 62.8663 0
M  V30 4 O 22.65 6.5272 60.6039 0
M  V30 5 N 24.4881 7.4605 61.5501 0
M  V30 6 C 26.4988 5.2797 63.6802 0
M  V30 7 C 25.5029 7.1848 62.3801 0
M  V30 8 C 24.2911 8.804 60.9352 0
M  V30 9 N 27.578 5.9612 64.1152 0
M  V30 10 C 26.4281 3.9119 63.9473 0
M  V30 11 C 26.5336 8.2525 62.7582 0
M  V30 12 C 28.5328 5.3806 64.8734 0
M  V30 13 C 27.4398 3.3222 64.6848 0
M  V30 14 N 28.4546 4.0573 65.1118 0
M  V30 15 N 29.6228 6.0108 65.35 0
M  V30 16 C 30.008 7.2792 65.1148 0
M  V30 17 C 30.9003 7.8829 66.0047 0
M  V30 18 C 29.532 8.05 64.0645 0
M  V30 19 C 31.3531 9.1975 65.8392 0
M  V30 20 C 29.9528 9.3775 63.898 0
M  V30 21 C 30.8769 9.9542 64.7721 0
M  V30 22 N 31.3381 11.2744 64.5741 0
M  V30 23 C 32.3134 11.8337 65.5312 0
M  V30 24 C 31.0076 11.9782 63.3226 0
M  V30 25 C 32.4641 13.3665 65.5035 0
M  V30 26 C 31.765 13.3039 63.2348 0
M  V30 27 N 31.5964 14.0036 64.5011 0 CHG=1
M  V30 28 H 23.3975 8.7869 60.294 0
M  V30 29 H 24.1583 9.5546 61.7288 0
M  V30 30 H 25.1721 9.0627 60.3298 0
M  V30 31 H 25.5981 3.3237 63.5846 0
M  V30 32 H 26.2855 9.1976 62.2529 0
M  V30 33 H 26.5203 8.4052 63.8478 0
M  V30 34 H 27.535 7.9217 62.4466 0
M  V30 35 H 27.4012 2.267 64.9113 0
M  V30 36 H 30.3314 5.4126 65.7236 0
M  V30 37 H 31.2538 7.3144 66.8522 0
M  V30 38 H 28.8282 7.6225 63.366 0
M  V30 39 H 32.0646 9.6207 66.5326 0
M  V30 40 H 29.5558 9.9627 63.0815 0
M  V30 41 H 33.2963 11.3922 65.3105 0
M  V30 42 H 31.9996 11.5424 66.5446 0
M  V30 43 H 29.9261 12.1774 63.2944 0
M  V30 44 H 31.2862 11.3451 62.4675 0
M  V30 45 H 32.2056 13.764 66.4963 0
M  V30 46 H 33.5105 13.6131 65.2711 0
M  V30 47 H 31.3573 13.9131 62.4146 0
M  V30 48 H 32.8327 13.1123 63.0536 0
M  V30 49 H 30.6421 13.9456 64.7947 0
M  V30 50 H 31.8538 14.964 64.393 0
M  V30 END ATOM
M  V30 BEGIN BOND
M  V30 1 1 1 2
M  V30 2 1 1 3
M  V30 3 2 2 4
M  V30 4 1 2 5
M  V30 5 1 3 6
M  V30 6 2 3 7
M  V30 7 1 5 8
M  V30 8 2 6 9
M  V30 9 1 6 10
M  V30 10 1 7 11
M  V30 11 1 9 12
M  V30 12 2 10 13
M  V30 13 2 12 14
M  V30 14 1 12 15
M  V30 15 1 15 16
M  V30 16 2 16 17
M  V30 17 1 16 18
M  V30 18 1 17 19
M  V30 19 2 18 20
M  V30 20 2 19 21
M  V30 21 1 21 22
M  V30 22 1 22 23
M  V30 23 1 22 24
M  V30 24 1 23 25
M  V30 25 1 24 26
M  V30 26 1 25 27
M  V30 27 1 5 7
M  V30 28 1 13 14
M  V30 29 1 20 21
M  V30 30 1 26 27
M  V30 31 1 8 28
M  V30 32 1 8 29
M  V30 33 1 8 30
M  V30 34 1 10 31
M  V30 35 1 11 32
M  V30 36 1 11 33
M  V30 37 1 11 34
M  V30 38 1 13 35
M  V30 39 1 15 36
M  V30 40 1 17 37
M  V30 41 1 18 38
M  V30 42 1 19 39
M  V30 43 1 20 40
M  V30 44 1 23 41
M  V30 45 1 23 42
M  V30 46 1 24 43
M  V30 47 1 24 44
M  V30 48 1 25 45
M  V30 49 1 25 46
M  V30 50 1 26 47
M  V30 51 1 26 48
M  V30 52 1 27 49
M  V30 53 1 27 50
M  V30 END BOND
M  V30 END CTAB
M  END
>  <Molecule Name>
CGGMDMYBCWDOLZ-PDYUUQAHNA-O

>  <hs_clash>
29.0

>  <hs_total>
119.11471484367183

>  <Total Molweight>
383.499

>  <cLogP>
2.423

>  <H-Acceptors>
7

>  <H-Donors>
2

>  <Polar Surface Area>
103.27

>  <Non-H Atoms>
27

>  <sp3-Atoms>
8

$$$$
GPSZYOIFQZPWEJ-WAVQYLLINA-N
Actelion Java MolfileCreator 2.0

  0  0  0  0  0  0              0 V3000
M  V30 BEGIN CTAB
M  V30 COUNTS 46 49 0 0 0
M  V30 BEGIN ATOM
M  V30 1 S 24.7596 6.7761 62.9766 0
M  V30 2 C 23.3928 6.4561 62.0015 0
M  V30 3 C 24.8738 5.1669 63.5449 0
M  V30 4 N 23.0675 5.1574 62.1025 0
M  V30 5 N 22.7479 7.364 61.2625 0
M  V30 6 C 25.8672 4.6475 64.3758 0
M  V30 7 C 23.8701 4.4397 62.9088 0
M  V30 8 N 26.8331 5.4555 64.8534 0
M  V30 9 C 25.9348 3.2817 64.6449 0
M  V30 10 C 23.6799 2.944 63.147 0
M  V30 11 C 27.8373 4.971 65.604 0
M  V30 12 C 26.9871 2.8152 65.4256 0
M  V30 13 N 27.8967 3.6615 65.8917 0
M  V30 14 N 28.7751 5.7867 66.0737 0
M  V30 15 C 29.0778 6.9683 65.5258 0
M  V30 16 C 28.1602 7.6956 64.769 0
M  V30 17 C 30.3404 7.4991 65.7632 0
M  V30 18 C 28.5142 8.9322 64.2363 0
M  V30 19 C 30.6911 8.7384 65.2467 0
M  V30 20 C 29.7871 9.452 64.4681 0
M  V30 21 N 30.1604 10.7174 63.9754 0
M  V30 22 C 31.5388 11.2319 64.1803 0
M  V30 23 C 29.1558 11.6132 63.3408 0
M  V30 24 C 31.4695 12.6508 64.7651 0
M  V30 25 C 29.2128 13.0269 63.9398 0
M  V30 26 O 30.5692 13.5234 64.0268 0
M  V30 27 H 22.7754 7.092 60.3008 0
M  V30 28 H 23.1883 8.2554 61.3691 0
M  V30 29 H 25.1892 2.6032 64.2575 0
M  V30 30 H 23.4742 2.7651 64.2127 0
M  V30 31 H 22.834 2.5817 62.5446 0
M  V30 32 H 24.5944 2.4074 62.8551 0
M  V30 33 H 27.0639 1.7624 65.6529 0
M  V30 34 H 29.443 5.3948 66.7062 0
M  V30 35 H 27.171 7.2983 64.5956 0
M  V30 36 H 31.0532 6.9429 66.3537 0
M  V30 37 H 27.803 9.4886 63.6437 0
M  V30 38 H 31.6686 9.1499 65.4505 0
M  V30 39 H 32.0682 11.2569 63.2168 0
M  V30 40 H 32.0767 10.5731 64.8778 0
M  V30 41 H 28.1507 11.1962 63.502 0
M  V30 42 H 29.3593 11.6728 62.2617 0
M  V30 43 H 31.1194 12.5853 65.806 0
M  V30 44 H 32.4782 13.0888 64.7446 0
M  V30 45 H 28.778 13.0027 64.95 0
M  V30 46 H 28.6258 13.7062 63.3043 0
M  V30 END ATOM
M  V30 BEGIN BOND
M  V30 1 1 1 2
M  V30 2 1 1 3
M  V30 3 2 2 4
M  V30 4 1 2 5
M  V30 5 1 3 6
M  V30 6 2 3 7
M  V30 7 2 6 8
M  V30 8 1 6 9
M  V30 9 1 7 10
M  V30 10 1 8 11
M  V30 11 2 9 12
M  V30 12 2 11 13
M  V30 13 1 11 14
M  V30 14 1 14 15
M  V30 15 2 15 16
M  V30 16 1 15 17
M  V30 17 1 16 18
M  V30 18 2 17 19
M  V30 19 2 18 20
M  V30 20 1 20 21
M  V30 21 1 21 22
M  V30 22 1 21 23
M  V30 23 1 22 24
M  V30 24 1 23 25
M  V30 25 1 24 26
M  V30 26 1 4 7
M  V30 27 1 12 13
M  V30 28 1 19 20
M  V30 29 1 25 26
M  V30 30 1 5 27
M  V30 31 1 5 28
M  V30 32 1 9 29
M  V30 33 1 10 30
M  V30 34 1 10 31
M  V30 35 1 10 32
M  V30 36 1 12 33
M  V30 37 1 14 34
M  V30 38 1 16 35
M  V30 39 1 17 36
M  V30 40 1 18 37
M  V30 41 1 19 38
M  V30 42 1 22 39
M  V30 43 1 22 40
M  V30 44 1 23 41
M  V30 45 1 23 42
M  V30 46 1 24 43
M  V30 47 1 24 44
M  V30 48 1 25 45
M  V30 49 1 25 46
M  V30 END BOND
M  V30 END CTAB
M  END
>  <Molecule Name>
GPSZYOIFQZPWEJ-WAVQYLLINA-N

>  <hs_clash>
4.0

>  <hs_total>
118.67006802814993

>  <Total Molweight>
368.464

>  <cLogP>
3.0005

>  <H-Acceptors>
7

>  <H-Donors>
2

>  <Polar Surface Area>
117.43

>  <Non-H Atoms>
26

>  <sp3-Atoms>
6

$$$$
YCVGLKWJKIKVBI-ZCNGDZFINA-O
Actelion Java MolfileCreator 2.0

  0  0  0  0  0  0              0 V3000
M  V30 BEGIN CTAB
M  V30 COUNTS 60 63 0 0 0
M  V30 BEGIN ATOM
M  V30 1 O 26.1776 9.7624 58.3412 0
M  V30 2 C 26.1463 9.1598 59.6904 0 CFG=2
M  V30 3 C 25.7076 10.1791 60.7689 0 CFG=2
M  V30 4 C 25.1854 7.9737 59.6581 0
M  V30 5 C 24.2581 10.6167 60.5065 0
M  V30 6 C 25.767 9.6843 62.2318 0
M  V30 7 N 23.8113 8.4505 59.3979 0 CHG=1
M  V30 8 C 23.2599 9.4431 60.3193 0
M  V30 9 N 27.0982 9.4427 62.8014 0
M  V30 10 C 27.4605 8.2677 63.3967 0
M  V30 11 N 26.6318 7.1916 63.3872 0
M  V30 12 C 28.6978 8.1068 64.0418 0
M  V30 13 C 27.0945 6.0437 64.0097 0
M  V30 14 C 29.1048 6.8833 64.6633 0
M  V30 15 N 28.2443 5.8555 64.6356 0
M  V30 16 C 26.454 4.8507 64.1586 0
M  V30 17 N 30.3124 6.7755 65.2723 0
M  V30 18 N 28.3901 4.5442 65.1616 0
M  V30 19 C 27.2317 3.8738 64.8198 0
M  V30 20 C 25.159 4.9046 63.4066 0
M  V30 21 C 31.3942 7.716 64.8722 0
M  V30 22 C 23.8457 5.2603 64.1024 0
M  V30 23 C 25.0934 4.0384 62.1389 0
M  V30 24 C 31.5245 8.8688 65.8728 0
M  V30 25 C 31.8762 8.6127 67.1898 0
M  V30 26 C 31.2614 10.1879 65.5034 0
M  V30 27 C 31.9841 9.6372 68.1355 0
M  V30 28 C 31.3687 11.2424 66.4407 0
M  V30 29 C 31.736 10.9653 67.7799 0
M  V30 30 H 26.8714 10.4099 58.2993 0
M  V30 31 H 27.1505 8.7923 59.9478 0
M  V30 32 H 26.3537 11.0653 60.6828 0
M  V30 33 H 25.4882 7.28 58.8604 0
M  V30 34 H 25.214 7.4539 60.6271 0
M  V30 35 H 24.2436 11.2302 59.5936 0
M  V30 36 H 23.9211 11.2226 61.3607 0
M  V30 37 H 25.2706 10.4403 62.8582 0
M  V30 38 H 25.2069 8.7391 62.2852 0
M  V30 39 H 23.8011 8.8524 58.4826 0
M  V30 40 H 23.2078 7.6535 59.4192 0
M  V30 41 H 22.3151 9.8316 59.9114 0
M  V30 42 H 23.0706 8.9685 61.2936 0
M  V30 43 H 27.7753 10.1769 62.7511 0
M  V30 44 H 29.3752 8.9475 64.0705 0
M  V30 45 H 30.4719 6.0805 65.9734 0
M  V30 46 H 26.9788 2.8418 65.0134 0
M  V30 47 H 25.3214 5.8717 62.9084 0
M  V30 48 H 32.3471 7.1689 64.8291 0
M  V30 49 H 31.1621 8.1277 63.879 0
M  V30 50 H 23.0253 5.2417 63.3701 0
M  V30 51 H 23.643 4.5293 64.8988 0
M  V30 52 H 23.9235 6.2669 64.5401 0
M  V30 53 H 24.1059 4.1516 61.6676 0
M  V30 54 H 25.8747 4.3598 61.4346 0
M  V30 55 H 25.2527 2.9835 62.4072 0
M  V30 56 H 32.0715 7.5948 67.4931 0
M  V30 57 H 30.9713 10.4078 64.4865 0
M  V30 58 H 32.262 9.3994 69.1517 0
M  V30 59 H 31.1702 12.2591 66.135 0
M  V30 60 H 31.8221 11.7593 68.5071 0
M  V30 END ATOM
M  V30 BEGIN BOND
M  V30 1 1 1 2
M  V30 2 1 2 3
M  V30 3 1 2 4
M  V30 4 1 3 5
M  V30 5 1 3 6
M  V30 6 1 4 7
M  V30 7 1 5 8
M  V30 8 1 6 9
M  V30 9 1 9 10
M  V30 10 2 10 11
M  V30 11 1 10 12
M  V30 12 1 11 13
M  V30 13 2 12 14
M  V30 14 1 13 15
M  V30 15 2 13 16
M  V30 16 1 14 17
M  V30 17 1 15 18
M  V30 18 1 16 19
M  V30 19 1 16 20
M  V30 20 1 17 21
M  V30 21 1 20 22
M  V30 22 1 20 23
M  V30 23 1 21 24
M  V30 24 2 24 25
M  V30 25 1 24 26
M  V30 26 1 25 27
M  V30 27 2 26 28
M  V30 28 2 27 29
M  V30 29 1 7 8
M  V30 30 1 14 15
M  V30 31 2 18 19
M  V30 32 1 28 29
M  V30 33 1 1 30
M  V30 34 1 2 31
M  V30 35 1 3 32
M  V30 36 1 4 33
M  V30 37 1 4 34
M  V30 38 1 5 35
M  V30 39 1 5 36
M  V30 40 1 6 37
M  V30 41 1 6 38
M  V30 42 1 7 39
M  V30 43 1 7 40
M  V30 44 1 8 41
M  V30 45 1 8 42
M  V30 46 1 9 43
M  V30 47 1 12 44
M  V30 48 1 17 45
M  V30 49 1 19 46
M  V30 50 1 20 47
M  V30 51 1 21 48
M  V30 52 1 21 49
M  V30 53 1 22 50
M  V30 54 1 22 51
M  V30 55 1 22 52
M  V30 56 1 23 53
M  V30 57 1 23 54
M  V30 58 1 23 55
M  V30 59 1 25 56
M  V30 60 1 26 57
M  V30 61 1 27 58
M  V30 62 1 28 59
M  V30 63 1 29 60
M  V30 END BOND
M  V30 BEGIN COLLECTION
M  V30 MDLV30/STERAC1 ATOMS=(2 2 3)
M  V30 END COLLECTION
M  V30 END CTAB
M  END
>  <Molecule Name>
YCVGLKWJKIKVBI-ZCNGDZFINA-O

>  <hs_clash>
0.0

>  <hs_total>
118.14165361946128

>  <Total Molweight>
395.529

>  <cLogP>
1.4939

>  <H-Acceptors>
7

>  <H-Donors>
4

>  <Polar Surface Area>
91.09

>  <Non-H Atoms>
29

>  <sp3-Atoms>
12

$$$$
UNSUKTMPEHFJHC-VNHAUOCNNA-N
Actelion Java MolfileCreator 2.0

  0  0  0  0  0  0              0 V3000
M  V30 BEGIN CTAB
M  V30 COUNTS 41 43 0 0 0
M  V30 BEGIN ATOM
M  V30 1 S 33.3402 10.6969 64.7025 0
M  V30 2 O 34.6971 10.0238 64.0766 0
M  V30 3 O 33.7093 11.4121 65.9805 0
M  V30 4 N 32.8072 11.6346 63.5766 0
M  V30 5 C 32.2631 9.3583 64.9849 0
M  V30 6 C 32.567 8.432 66.0131 0
M  V30 7 C 31.1078 9.1848 64.1879 0
M  V30 8 C 31.7326 7.3161 66.2493 0
M  V30 9 C 30.2721 8.0646 64.4111 0
M  V30 10 C 30.568 7.1017 65.4512 0
M  V30 11 N 29.8442 5.9521 65.6819 0
M  V30 12 C 28.7218 5.5261 65.0068 0
M  V30 13 S 27.7903 6.418 63.8553 0
M  V30 14 N 28.2539 4.2985 65.2516 0
M  V30 15 C 26.7639 5.0437 63.662 0
M  V30 16 C 27.1775 4.0069 64.5082 0
M  V30 17 C 25.6973 5.0101 62.78 0
M  V30 18 N 26.599 2.7878 64.6108 0
M  V30 19 O 24.9303 3.8945 62.6702 0
M  V30 20 C 25.3137 6.1531 61.8892 0
M  V30 21 C 23.9773 6.6649 61.8885 0
M  V30 22 C 26.2918 6.7476 61.0209 0
M  V30 23 C 23.5999 7.7705 61.0324 0
M  V30 24 C 25.9423 7.8333 60.172 0
M  V30 25 N 22.3483 8.2482 61.0435 0 CHG=1
M  V30 26 C 24.6168 8.3421 60.1762 0
M  V30 27 O 22.0156 9.1778 60.3368 0
M  V30 28 O 21.4127 7.7239 61.83 0 CHG=-1
M  V30 29 H 33.5785 12.0616 63.105 0
M  V30 30 H 32.2716 11.1002 62.9231 0
M  V30 31 H 33.4457 8.5803 66.6232 0
M  V30 32 H 30.8653 9.9005 63.4163 0
M  V30 33 H 31.9772 6.621 67.0387 0
M  V30 34 H 29.3969 7.9255 63.7939 0
M  V30 35 H 30.3082 5.2545 66.2278 0
M  V30 36 H 27.0978 2.2369 65.2798 0
M  V30 37 H 25.8145 2.7374 63.9925 0
M  V30 38 H 23.2375 6.2194 62.537 0
M  V30 39 H 27.3018 6.3663 61.0131 0
M  V30 40 H 26.6859 8.2716 59.5233 0
M  V30 41 H 24.3632 9.1694 59.5298 0
M  V30 END ATOM
M  V30 BEGIN BOND
M  V30 1 2 1 2
M  V30 2 2 1 3
M  V30 3 1 1 4
M  V30 4 1 1 5
M  V30 5 2 5 6
M  V30 6 1 5 7
M  V30 7 1 6 8
M  V30 8 2 7 9
M  V30 9 2 8 10
M  V30 10 1 10 11
M  V30 11 1 11 12
M  V30 12 1 12 13
M  V30 13 2 12 14
M  V30 14 1 13 15
M  V30 15 1 14 16
M  V30 16 1 15 17
M  V30 17 1 16 18
M  V30 18 2 17 19
M  V30 19 1 17 20
M  V30 20 2 20 21
M  V30 21 1 20 22
M  V30 22 1 21 23
M  V30 23 2 22 24
M  V30 24 1 23 25
M  V30 25 2 23 26
M  V30 26 2 25 27
M  V30 27 1 25 28
M  V30 28 1 9 10
M  V30 29 2 15 16
M  V30 30 1 24 26
M  V30 31 1 4 29
M  V30 32 1 4 30
M  V30 33 1 6 31
M  V30 34 1 7 32
M  V30 35 1 8 33
M  V30 36 1 9 34
M  V30 37 1 11 35
M  V30 38 1 18 36
M  V30 39 1 18 37
M  V30 40 1 21 38
M  V30 41 1 22 39
M  V30 42 1 24 40
M  V30 43 1 26 41
M  V30 END BOND
M  V30 END CTAB
M  END
>  <Molecule Name>
UNSUKTMPEHFJHC-VNHAUOCNNA-N

>  <hs_clash>
3.0

>  <hs_total>
117.67998823325337

>  <Total Molweight>
419.441

>  <cLogP>
1.3736

>  <H-Acceptors>
10

>  <H-Donors>
3

>  <Polar Surface Area>
210.61

>  <Non-H Atoms>
28

>  <sp3-Atoms>
2

$$$$
LERGLIZTDGVNRO-GPQMBLKYNA-N
Actelion Java MolfileCreator 2.0

  0  0  0  0  0  0              0 V3000
M  V30 BEGIN CTAB
M  V30 COUNTS 33 35 0 0 0
M  V30 BEGIN ATOM
M  V30 1 S 27.6391 6.4091 63.8644 0
M  V30 2 C 28.648 5.6014 64.9944 0
M  V30 3 C 26.7005 4.9893 63.687 0
M  V30 4 N 28.2897 4.3355 65.2274 0
M  V30 5 N 29.747 6.1145 65.6618 0
M  V30 6 C 27.2132 3.98 64.5145 0
M  V30 7 C 25.5957 4.8904 62.8287 0
M  V30 8 C 30.3567 7.3613 65.6104 0
M  V30 9 N 26.7256 2.7386 64.626 0
M  V30 10 O 24.9086 3.7396 62.7596 0
M  V30 11 C 25.0919 5.9865 61.916 0
M  V30 12 C 31.501 7.5844 66.4833 0
M  V30 13 C 29.9287 8.4716 64.7365 0
M  V30 14 C 23.686 6.3031 61.7467 0
M  V30 15 C 26.057 6.7643 61.1412 0
M  V30 16 C 32.1816 8.849 66.4895 0
M  V30 17 C 30.6132 9.7281 64.7439 0
M  V30 18 N 23.3178 7.3311 60.8647 0
M  V30 19 C 25.6399 7.8118 60.249 0
M  V30 20 C 31.7379 9.9185 65.621 0
M  V30 21 C 24.2448 8.0846 60.1238 0
M  V30 22 H 30.3189 5.4107 66.0832 0
M  V30 23 H 27.2807 2.2194 65.2758 0
M  V30 24 H 25.9275 2.6388 64.0319 0
M  V30 25 H 31.841 6.791 67.1324 0
M  V30 26 H 29.0829 8.3328 64.0795 0
M  V30 27 H 22.9322 5.7548 62.2927 0
M  V30 28 H 27.1099 6.5466 61.2417 0
M  V30 29 H 33.0266 9.0026 67.1442 0
M  V30 30 H 30.2876 10.5286 64.0959 0
M  V30 31 H 26.3662 8.3796 59.6865 0
M  V30 32 H 32.2554 10.8665 65.6311 0
M  V30 33 H 23.9024 8.8666 59.4622 0
M  V30 END ATOM
M  V30 BEGIN BOND
M  V30 1 1 1 2
M  V30 2 1 1 3
M  V30 3 2 2 4
M  V30 4 1 2 5
M  V30 5 2 3 6
M  V30 6 1 3 7
M  V30 7 1 5 8
M  V30 8 1 6 9
M  V30 9 2 7 10
M  V30 10 1 7 11
M  V30 11 2 8 12
M  V30 12 1 8 13
M  V30 13 2 11 14
M  V30 14 1 11 15
M  V30 15 1 12 16
M  V30 16 2 13 17
M  V30 17 1 14 18
M  V30 18 2 15 19
M  V30 19 2 16 20
M  V30 20 2 18 21
M  V30 21 1 4 6
M  V30 22 1 17 20
M  V30 23 1 19 21
M  V30 24 1 5 22
M  V30 25 1 9 23
M  V30 26 1 9 24
M  V30 27 1 12 25
M  V30 28 1 13 26
M  V30 29 1 14 27
M  V30 30 1 15 28
M  V30 31 1 16 29
M  V30 32 1 17 30
M  V30 33 1 19 31
M  V30 34 1 20 32
M  V30 35 1 21 33
M  V30 END BOND
M  V30 END CTAB
M  END
>  <Molecule Name>
LERGLIZTDGVNRO-GPQMBLKYNA-N

>  <hs_clash>
0.0

>  <hs_total>
115.81649694250487

>  <Total Molweight>
296.353

>  <cLogP>
2.7007

>  <H-Acceptors>
5

>  <H-Donors>
2

>  <Polar Surface Area>
109.14

>  <Non-H Atoms>
21

>  <sp3-Atoms>
0

$$$$
JXJHPQHLHQTQQI-VNHAUOCNNA-N
Actelion Java MolfileCreator 2.0

  0  0  0  0  0  0              0 V3000
M  V30 BEGIN CTAB
M  V30 COUNTS 41 43 0 0 0
M  V30 BEGIN ATOM
M  V30 1 S 33.0164 10.5638 64.5492 0
M  V30 2 O 34.0398 10.0415 63.679 0
M  V30 3 O 33.5846 11.0668 65.7808 0
M  V30 4 N 32.215 11.7725 63.7492 0
M  V30 5 C 31.9474 9.1963 64.8864 0
M  V30 6 C 31.0147 8.7829 63.9097 0
M  V30 7 C 32.049 8.5024 66.1103 0
M  V30 8 C 30.1891 7.6696 64.1577 0
M  V30 9 C 31.2133 7.3858 66.3588 0
M  V30 10 C 30.2701 6.95 65.3849 0
M  V30 11 N 29.528 5.8684 65.6807 0
M  V30 12 C 28.5098 5.3444 65.0157 0
M  V30 13 S 27.481 6.2119 63.936 0
M  V30 14 N 28.2035 4.0606 65.1639 0
M  V30 15 C 26.5776 4.7546 63.6046 0
M  V30 16 C 27.1132 3.7196 64.3778 0
M  V30 17 C 25.5142 4.6501 62.7038 0
M  V30 18 N 26.6435 2.519 64.3578 0
M  V30 19 O 24.9011 3.5774 62.5773 0
M  V30 20 C 25.1852 5.6955 61.8133 0
M  V30 21 C 23.8618 6.271 61.7687 0
M  V30 22 C 26.179 6.1871 60.9112 0
M  V30 23 N 22.9051 5.8815 62.54 0 CHG=1
M  V30 24 C 23.5891 7.2955 60.8358 0
M  V30 25 C 25.878 7.2173 59.9939 0
M  V30 26 O 23.1303 5.496 63.7719 0
M  V30 27 O 21.6842 5.8654 62.0807 0 CHG=-1
M  V30 28 C 24.5863 7.7627 59.9572 0
M  V30 29 H 31.8275 11.4117 62.901 0
M  V30 30 H 31.8521 12.4281 64.4118 0
M  V30 31 H 30.9351 9.3191 62.9755 0
M  V30 32 H 32.762 8.8217 66.8561 0
M  V30 33 H 29.4813 7.3559 63.4048 0
M  V30 34 H 31.2923 6.859 67.2984 0
M  V30 35 H 30.0631 5.1677 66.1523 0
M  V30 36 H 27.1807 1.9403 64.9715 0
M  V30 37 H 26.6949 2.156 63.4276 0
M  V30 38 H 27.1728 5.7651 60.9318 0
M  V30 39 H 22.6 7.7281 60.7954 0
M  V30 40 H 26.6402 7.5845 59.3227 0
M  V30 41 H 24.3544 8.5459 59.2506 0
M  V30 END ATOM
M  V30 BEGIN BOND
M  V30 1 2 1 2
M  V30 2 2 1 3
M  V30 3 1 1 4
M  V30 4 1 1 5
M  V30 5 2 5 6
M  V30 6 1 5 7
M  V30 7 1 6 8
M  V30 8 2 7 9
M  V30 9 2 8 10
M  V30 10 1 10 11
M  V30 11 1 11 12
M  V30 12 1 12 13
M  V30 13 2 12 14
M  V30 14 1 13 15
M  V30 15 1 14 16
M  V30 16 1 15 17
M  V30 17 1 16 18
M  V30 18 2 17 19
M  V30 19 1 17 20
M  V30 20 2 20 21
M  V30 21 1 20 22
M  V30 22 1 21 23
M  V30 23 1 21 24
M  V30 24 2 22 25
M  V30 25 2 23 26
M  V30 26 1 23 27
M  V30 27 2 24 28
M  V30 28 1 9 10
M  V30 29 2 15 16
M  V30 30 1 25 28
M  V30 31 1 4 29
M  V30 32 1 4 30
M  V30 33 1 6 31
M  V30 34 1 7 32
M  V30 35 1 8 33
M  V30 36 1 9 34
M  V30 37 1 11 35
M  V30 38 1 18 36
M  V30 39 1 18 37
M  V30 40 1 22 38
M  V30 41 1 24 39
M  V30 42 1 25 40
M  V30 43 1 28 41
M  V30 END BOND
M  V30 END CTAB
M  END
>  <Molecule Name>
JXJHPQHLHQTQQI-VNHAUOCNNA-N

>  <hs_clash>
2.0

>  <hs_total>
115.5104925217967

>  <Total Molweight>
419.441

>  <cLogP>
1.3736

>  <H-Acceptors>
10

>  <H-Donors>
3

>  <Polar Surface Area>
210.61

>  <Non-H Atoms>
28

>  <sp3-Atoms>
2

$$$$
FUGRWXRQJGJIER-LCNYUBJKNA-N
Actelion Java MolfileCreator 2.0

  0  0  0  0  0  0              0 V3000
M  V30 BEGIN CTAB
M  V30 COUNTS 50 54 0 0 0
M  V30 BEGIN ATOM
M  V30 1 S 32.3314 10.933 64.5708 0
M  V30 2 O 33.3097 11.3225 65.5212 0
M  V30 3 O 32.9566 10.6742 63.3389 0
M  V30 4 N 31.0964 12.0381 64.3808 0
M  V30 5 C 31.3802 9.5828 65.0522 0
M  V30 6 C 30.5308 9.0676 64.11 0
M  V30 7 C 31.4305 9.0575 66.3281 0
M  V30 8 C 29.7423 7.9843 64.4239 0
M  V30 9 C 30.6412 7.9805 66.6519 0
M  V30 10 C 29.7772 7.4248 65.708 0
M  V30 11 N 28.9585 6.2818 66.1179 0
M  V30 12 C 27.8226 5.8331 65.3649 0
M  V30 13 N 27.2112 6.6703 64.5043 0
M  V30 14 N 27.3646 4.5724 65.4978 0
M  V30 15 C 26.1388 6.3181 63.741 0
M  V30 16 C 26.2952 4.157 64.7626 0
M  V30 17 C 25.558 7.3162 62.7895 0
M  V30 18 C 25.6655 5.013 63.8636 0
M  V30 19 N 25.6547 3.0017 64.7229 0
M  V30 20 C 26.1492 8.5814 62.7499 0
M  V30 21 C 24.4872 7.0532 61.8898 0
M  V30 22 N 24.5584 4.2551 63.2503 0
M  V30 23 C 24.6276 3.0649 63.8424 0
M  V30 24 C 25.6778 9.5354 61.8819 0
M  V30 25 C 24.0359 8.0478 61.0165 0
M  V30 26 C 26.3349 10.8349 61.9034 0
M  V30 27 C 24.6415 9.2998 61.0093 0
M  V30 28 C 27.619 10.879 61.4673 0
M  V30 29 C 25.6549 11.9364 62.3528 0
M  V30 30 C 28.2469 12.0689 61.4823 0
M  V30 31 C 26.2877 13.1361 62.3657 0
M  V30 32 C 27.5872 13.2023 61.9282 0
M  V30 33 H 31.3466 12.7002 63.6745 0
M  V30 34 H 30.2606 11.5612 64.1088 0
M  V30 35 H 30.4796 9.509 63.1257 0
M  V30 36 H 32.0869 9.4912 67.068 0
M  V30 37 H 29.0905 7.5618 63.6739 0
M  V30 38 H 30.6898 7.5605 67.6458 0
M  V30 39 H 29.4635 5.5539 66.5813 0
M  V30 40 H 25.894 2.1965 65.2653 0
M  V30 41 H 26.9786 8.8097 63.4031 0
M  V30 42 H 24.02 6.0796 61.8817 0
M  V30 43 H 23.9479 2.2495 63.6449 0
M  V30 44 H 23.2147 7.8433 60.3456 0
M  V30 45 H 24.3048 10.071 60.3322 0
M  V30 46 H 28.1205 9.9883 61.1199 0
M  V30 47 H 24.6328 11.8509 62.6912 0
M  V30 48 H 29.27 12.1408 61.1449 0
M  V30 49 H 25.7786 14.0231 62.7136 0
M  V30 50 H 28.1025 14.1515 61.9318 0
M  V30 END ATOM
M  V30 BEGIN BOND
M  V30 1 2 1 2
M  V30 2 2 1 3
M  V30 3 1 1 4
M  V30 4 1 1 5
M  V30 5 2 5 6
M  V30 6 1 5 7
M  V30 7 1 6 8
M  V30 8 2 7 9
M  V30 9 2 8 10
M  V30 10 1 10 11
M  V30 11 1 11 12
M  V30 12 2 12 13
M  V30 13 1 12 14
M  V30 14 1 13 15
M  V30 15 2 14 16
M  V30 16 1 15 17
M  V30 17 2 15 18
M  V30 18 1 16 19
M  V30 19 2 17 20
M  V30 20 1 17 21
M  V30 21 1 18 22
M  V30 22 1 19 23
M  V30 23 1 20 24
M  V30 24 2 21 25
M  V30 25 1 24 26
M  V30 26 2 24 27
M  V30 27 2 26 28
M  V30 28 1 26 29
M  V30 29 1 28 30
M  V30 30 2 29 31
M  V30 31 2 30 32
M  V30 32 1 9 10
M  V30 33 1 16 18
M  V30 34 2 22 23
M  V30 35 1 25 27
M  V30 36 1 31 32
M  V30 37 1 4 33
M  V30 38 1 4 34
M  V30 39 1 6 35
M  V30 40 1 7 36
M  V30 41 1 8 37
M  V30 42 1 9 38
M  V30 43 1 11 39
M  V30 44 1 19 40
M  V30 45 1 20 41
M  V30 46 1 21 42
M  V30 47 1 23 43
M  V30 48 1 25 44
M  V30 49 1 27 45
M  V30 50 1 28 46
M  V30 51 1 29 47
M  V30 52 1 30 48
M  V30 53 1 31 49
M  V30 54 1 32 50
M  V30 END BOND
M  V30 END CTAB
M  END
>  <Molecule Name>
FUGRWXRQJGJIER-LCNYUBJKNA-N

>  <hs_clash>
0.0

>  <hs_total>
115.28947049039984

>  <Total Molweight>
442.502

>  <cLogP>
4.0522

>  <H-Acceptors>
8

>  <H-Donors>
3

>  <Polar Surface Area>
135.03

>  <Non-H Atoms>
32

>  <sp3-Atoms>
1

$$$$
PCQPAKMJSYGXRE-UKXPRSRNNA-O
Actelion Java MolfileCreator 2.0

  0  0  0  0  0  0              0 V3000
M  V30 BEGIN CTAB
M  V30 COUNTS 56 59 0 0 0
M  V30 BEGIN ATOM
M  V30 1 S 26.0691 9.2956 62.9859 0
M  V30 2 C 26.6949 7.8226 63.6986 0
M  V30 3 C 27.5624 10.3106 62.7743 0
M  V30 4 N 27.9729 7.8753 64.1413 0
M  V30 5 N 25.8757 6.7704 63.7781 0
M  V30 6 C 28.3211 9.9208 61.526 0
M  V30 7 C 28.4923 6.7859 64.741 0
M  V30 8 C 26.4018 5.668 64.365 0
M  V30 9 N 27.7555 10.4993 60.2935 0 CHG=1
M  V30 10 N 29.7973 6.8334 65.1526 0
M  V30 11 C 27.6991 5.6381 64.8693 0
M  V30 12 C 25.8473 4.4442 64.5907 0
M  V30 13 C 30.7474 7.8388 64.6757 0
M  V30 14 N 27.8612 4.3927 65.3542 0
M  V30 15 N 26.7385 3.6595 65.1892 0
M  V30 16 C 24.4792 3.9466 64.2116 0
M  V30 17 C 30.8214 8.9899 65.6493 0
M  V30 18 C 24.4466 3.5141 62.7429 0
M  V30 19 C 23.3838 4.9632 64.5271 0
M  V30 20 C 30.6337 10.3025 65.2503 0
M  V30 21 C 31.1053 8.7352 66.9779 0
M  V30 22 C 30.7384 11.3376 66.1633 0
M  V30 23 C 31.1984 9.7586 67.8964 0
M  V30 24 C 31.0322 11.0845 67.5021 0
M  V30 25 C 31.064 12.183 68.4986 0
M  V30 26 N 30.3877 13.3091 68.1646 0
M  V30 27 C 31.65 12.0393 69.7411 0
M  V30 28 C 30.3578 14.3185 69.0494 0
M  V30 29 C 31.5998 13.0899 70.634 0
M  V30 30 C 30.9469 14.2511 70.2866 0
M  V30 31 H 28.2159 10.1725 63.6484 0
M  V30 32 H 27.269 11.3682 62.6995 0
M  V30 33 H 29.3606 10.2655 61.628 0
M  V30 34 H 28.305 8.8248 61.4364 0
M  V30 35 H 28.3657 10.3081 59.5248 0
M  V30 36 H 26.8587 10.094 60.1163 0
M  V30 37 H 27.6582 11.4886 60.4037 0
M  V30 38 H 30.1718 6.0168 65.5916 0
M  V30 39 H 30.4185 8.2133 63.6951 0
M  V30 40 H 31.7426 7.3808 64.5785 0
M  V30 41 H 26.6034 2.7079 65.4647 0
M  V30 42 H 24.2748 3.0515 64.8172 0
M  V30 43 H 25.2483 2.7842 62.5573 0
M  V30 44 H 23.4731 3.0543 62.5176 0
M  V30 45 H 24.5946 4.3931 62.0984 0
M  V30 46 H 23.441 5.2474 65.5884 0
M  V30 47 H 23.5213 5.8568 63.9004 0
M  V30 48 H 22.3996 4.5178 64.3196 0
M  V30 49 H 30.4036 10.5205 64.2181 0
M  V30 50 H 31.2566 7.7163 67.302 0
M  V30 51 H 30.5902 12.3556 65.8341 0
M  V30 52 H 31.4021 9.5306 68.9323 0
M  V30 53 H 32.1413 11.1164 70.0105 0
M  V30 54 H 29.8446 15.2282 68.774 0
M  V30 55 H 32.0705 13.0018 71.6021 0
M  V30 56 H 30.9 15.0865 70.9698 0
M  V30 END ATOM
M  V30 BEGIN BOND
M  V30 1 1 1 2
M  V30 2 1 1 3
M  V30 3 1 2 4
M  V30 4 2 2 5
M  V30 5 1 3 6
M  V30 6 2 4 7
M  V30 7 1 5 8
M  V30 8 1 6 9
M  V30 9 1 7 10
M  V30 10 1 7 11
M  V30 11 2 8 12
M  V30 12 1 10 13
M  V30 13 2 11 14
M  V30 14 1 12 15
M  V30 15 1 12 16
M  V30 16 1 13 17
M  V30 17 1 16 18
M  V30 18 1 16 19
M  V30 19 2 17 20
M  V30 20 1 17 21
M  V30 21 1 20 22
M  V30 22 2 21 23
M  V30 23 2 22 24
M  V30 24 1 24 25
M  V30 25 2 25 26
M  V30 26 1 25 27
M  V30 27 1 26 28
M  V30 28 2 27 29
M  V30 29 2 28 30
M  V30 30 1 8 11
M  V30 31 1 14 15
M  V30 32 1 23 24
M  V30 33 1 29 30
M  V30 34 1 3 31
M  V30 35 1 3 32
M  V30 36 1 6 33
M  V30 37 1 6 34
M  V30 38 1 9 35
M  V30 39 1 9 36
M  V30 40 1 9 37
M  V30 41 1 10 38
M  V30 42 1 13 39
M  V30 43 1 13 40
M  V30 44 1 15 41
M  V30 45 1 16 42
M  V30 46 1 18 43
M  V30 47 1 18 44
M  V30 48 1 18 45
M  V30 49 1 19 46
M  V30 50 1 19 47
M  V30 51 1 19 48
M  V30 52 1 20 49
M  V30 53 1 21 50
M  V30 54 1 22 51
M  V30 55 1 23 52
M  V30 56 1 27 53
M  V30 57 1 28 54
M  V30 58 1 29 55
M  V30 59 1 30 56
M  V30 END BOND
M  V30 END CTAB
M  END
>  <Molecule Name>
PCQPAKMJSYGXRE-UKXPRSRNNA-O

>  <hs_clash>
0.0

>  <hs_total>
115.2398919255501

>  <Total Molweight>
420.563

>  <cLogP>
-0.4428

>  <H-Acceptors>
7

>  <H-Donors>
3

>  <Polar Surface Area>
132.32

>  <Non-H Atoms>
30

>  <sp3-Atoms>
8

$$$$
DJXADPDNJXCWOH-JQHVODBVNA-N
Actelion Java MolfileCreator 2.0

  0  0  0  0  0  0              0 V3000
M  V30 BEGIN CTAB
M  V30 COUNTS 48 51 0 0 0
M  V30 BEGIN ATOM
M  V30 1 O 25.2894 6.589 63.8865 0
M  V30 2 C 26.1797 5.7266 64.4804 0
M  V30 3 C 25.8426 7.1199 62.6829 0
M  V30 4 N 25.8793 4.428 64.6334 0
M  V30 5 C 27.3608 6.2038 64.9087 0
M  V30 6 C 24.7562 7.5606 61.7395 0
M  V30 7 C 26.766 3.6117 65.2211 0
M  V30 8 N 27.9161 7.4179 64.8832 0
M  V30 9 C 28.2309 5.3658 65.4874 0
M  V30 10 C 24.061 8.7835 62.3477 0
M  V30 11 C 25.4962 7.8377 60.3999 0
M  V30 12 N 27.9423 4.0798 65.6481 0
M  V30 13 N 26.4825 2.3333 65.3855 0
M  V30 14 C 29.1183 7.2884 65.4485 0
M  V30 15 N 29.3175 6.0341 65.8188 0
M  V30 16 C 23.3154 9.6017 61.3534 0
M  V30 17 C 24.7862 8.831 59.4922 0
M  V30 18 C 30.0215 8.2607 65.6232 0
M  V30 19 C 24.2828 10.0457 60.252 0
M  V30 20 C 30.2983 9.1943 64.5989 0
M  V30 21 C 30.7199 8.3353 66.8398 0
M  V30 22 C 31.2551 10.193 64.8182 0
M  V30 23 C 29.6486 9.1775 63.3535 0
M  V30 24 C 31.6656 9.3395 67.0506 0
M  V30 25 C 31.934 10.2664 66.0391 0
M  V30 26 H 26.4513 6.3451 62.1945 0
M  V30 27 H 26.4776 7.9839 62.9294 0
M  V30 28 H 24.0262 6.7501 61.5956 0
M  V30 29 H 24.8252 9.4198 62.8184 0
M  V30 30 H 23.3517 8.4355 63.1133 0
M  V30 31 H 25.5976 6.886 59.8581 0
M  V30 32 H 26.4949 8.2355 60.6329 0
M  V30 33 H 25.5722 2.1433 65.0176 0
M  V30 34 H 27.2494 1.8767 65.8366 0
M  V30 35 H 30.1336 5.665 66.2636 0
M  V30 36 H 22.5055 9.001 60.9138 0
M  V30 37 H 22.8883 10.4863 61.8487 0
M  V30 38 H 23.929 8.3288 59.0199 0
M  V30 39 H 25.489 9.1656 58.7154 0
M  V30 40 H 23.761 10.7211 59.5577 0
M  V30 41 H 25.1353 10.573 60.705 0
M  V30 42 H 30.5237 7.6112 67.6168 0
M  V30 43 H 31.4699 10.911 64.0404 0
M  V30 44 H 28.5662 9.3059 63.5023 0
M  V30 45 H 30.0322 9.9977 62.7289 0
M  V30 46 H 29.8384 8.2163 62.8541 0
M  V30 47 H 32.1889 9.4006 67.9932 0
M  V30 48 H 32.6679 11.0418 66.2011 0
M  V30 END ATOM
M  V30 BEGIN BOND
M  V30 1 1 1 2
M  V30 2 1 1 3
M  V30 3 2 2 4
M  V30 4 1 2 5
M  V30 5 1 3 6
M  V30 6 1 4 7
M  V30 7 1 5 8
M  V30 8 2 5 9
M  V30 9 1 6 10
M  V30 10 1 6 11
M  V30 11 2 7 12
M  V30 12 1 7 13
M  V30 13 2 8 14
M  V30 14 1 9 15
M  V30 15 1 10 16
M  V30 16 1 11 17
M  V30 17 1 14 18
M  V30 18 1 16 19
M  V30 19 2 18 20
M  V30 20 1 18 21
M  V30 21 1 20 22
M  V30 22 1 20 23
M  V30 23 2 21 24
M  V30 24 2 22 25
M  V30 25 1 9 12
M  V30 26 1 14 15
M  V30 27 1 17 19
M  V30 28 1 24 25
M  V30 29 1 3 26
M  V30 30 1 3 27
M  V30 31 1 6 28
M  V30 32 1 10 29
M  V30 33 1 10 30
M  V30 34 1 11 31
M  V30 35 1 11 32
M  V30 36 1 13 33
M  V30 37 1 13 34
M  V30 38 1 15 35
M  V30 39 1 16 36
M  V30 40 1 16 37
M  V30 41 1 17 38
M  V30 42 1 17 39
M  V30 43 1 19 40
M  V30 44 1 19 41
M  V30 45 1 21 42
M  V30 46 1 22 43
M  V30 47 1 23 44
M  V30 48 1 23 45
M  V30 49 1 23 46
M  V30 50 1 24 47
M  V30 51 1 25 48
M  V30 END BOND
M  V30 END CTAB
M  END
>  <Molecule Name>
DJXADPDNJXCWOH-JQHVODBVNA-N

>  <hs_clash>
0.0

>  <hs_total>
115.22293982194451

>  <Total Molweight>
337.426

>  <cLogP>
3.6898

>  <H-Acceptors>
6

>  <H-Donors>
2

>  <Polar Surface Area>
89.71

>  <Non-H Atoms>
25

>  <sp3-Atoms>
9

$$$$
JPXZDHWPWCZKAT-IUIWLCSJNA-N
Actelion Java MolfileCreator 2.0

  0  0  0  0  0  0              0 V3000
M  V30 BEGIN CTAB
M  V30 COUNTS 23 24 0 0 0
M  V30 BEGIN ATOM
M  V30 1 S 26.3455 7.1058 61.9356 0
M  V30 2 C 25.2701 7.0559 60.6573 0
M  V30 3 C 25.8508 5.6151 62.4696 0
M  V30 4 N 24.5332 5.9235 60.569 0
M  V30 5 N 25.336 8.3374 59.8904 0
M  V30 6 C 26.7643 5.0832 63.5153 0
M  V30 7 C 24.8342 4.9752 61.5256 0
M  V30 8 N 27.6784 5.9569 64.0512 0
M  V30 9 C 26.6811 3.77 63.9513 0
M  V30 10 C 24.1263 3.6526 61.57 0
M  V30 11 C 28.5502 5.5694 64.9786 0
M  V30 12 C 27.6128 3.4022 64.8819 0
M  V30 13 N 28.5256 4.3064 65.3509 0
M  V30 14 N 29.4845 6.3048 65.5487 0
M  V30 15 H 24.6666 8.3165 59.1478 0
M  V30 16 H 26.2531 8.4511 59.509 0
M  V30 17 H 25.9318 3.0854 63.5821 0
M  V30 18 H 23.3876 3.6042 60.7564 0
M  V30 19 H 24.8585 2.8409 61.4494 0
M  V30 20 H 23.6137 3.5432 62.5374 0
M  V30 21 H 27.6282 2.3871 65.2502 0
M  V30 22 H 29.4517 7.2331 65.1777 0
M  V30 23 H 29.9903 5.7494 66.2086 0
M  V30 END ATOM
M  V30 BEGIN BOND
M  V30 1 1 1 2
M  V30 2 1 1 3
M  V30 3 2 2 4
M  V30 4 1 2 5
M  V30 5 1 3 6
M  V30 6 2 3 7
M  V30 7 2 6 8
M  V30 8 1 6 9
M  V30 9 1 7 10
M  V30 10 1 8 11
M  V30 11 2 9 12
M  V30 12 2 11 13
M  V30 13 1 11 14
M  V30 14 1 4 7
M  V30 15 1 12 13
M  V30 16 1 5 15
M  V30 17 1 5 16
M  V30 18 1 9 17
M  V30 19 1 10 18
M  V30 20 1 10 19
M  V30 21 1 10 20
M  V30 22 1 12 21
M  V30 23 1 14 22
M  V30 24 1 14 23
M  V30 END BOND
M  V30 END CTAB
M  END
>  <Molecule Name>
JPXZDHWPWCZKAT-IUIWLCSJNA-N

>  <hs_clash>
0.0

>  <hs_total>
115.21736557339001

>  <Total Molweight>
207.260

>  <cLogP>
1.1238

>  <H-Acceptors>
5

>  <H-Donors>
2

>  <Polar Surface Area>
118.95

>  <Non-H Atoms>
14

>  <sp3-Atoms>
1

$$$$
GGEWEQJWGGJUHO-JLOFHYGUNA-N
Actelion Java MolfileCreator 2.0

  0  0  0  0  0  0              0 V3000
M  V30 BEGIN CTAB
M  V30 COUNTS 29 31 0 0 0
M  V30 BEGIN ATOM
M  V30 1 O 25.9199 7.736 63.8097 0
M  V30 2 C 26.555 6.7144 64.4728 0
M  V30 3 C 26.3266 9.1011 63.928 0
M  V30 4 C 26.0921 5.3087 64.3501 0
M  V30 5 C 27.6936 6.9026 65.2758 0
M  V30 6 C 26.8016 4.2873 65.1185 0
M  V30 7 C 24.9197 4.6812 63.7735 0
M  V30 8 C 28.3238 5.845 65.948 0
M  V30 9 N 27.8908 4.5698 65.8833 0
M  V30 10 N 26.1944 3.0839 64.9131 0
M  V30 11 C 23.9656 5.0766 62.6927 0
M  V30 12 C 25.1152 3.2146 64.0822 0
M  V30 13 N 23.3405 4.0772 62.0126 0
M  V30 14 C 23.5219 6.3993 62.4993 0
M  V30 15 C 22.3959 4.3247 61.0806 0
M  V30 16 C 22.5514 6.6384 61.5162 0
M  V30 17 N 21.9954 5.608 60.8407 0
M  V30 18 N 21.8634 3.2732 60.3976 0
M  V30 19 H 25.673 9.734 63.3096 0
M  V30 20 H 26.2527 9.4159 64.9796 0
M  V30 21 H 27.3669 9.2046 63.5866 0
M  V30 22 H 28.0981 7.8988 65.3791 0
M  V30 23 H 29.1965 6.0623 66.5457 0
M  V30 24 H 26.4975 2.2204 65.3161 0
M  V30 25 H 24.505 2.4052 63.7092 0
M  V30 26 H 23.9192 7.209 63.0934 0
M  V30 27 H 22.2462 7.6514 61.2977 0
M  V30 28 H 21.1829 3.6086 59.7461 0
M  V30 29 H 22.2828 2.4227 60.7145 0
M  V30 END ATOM
M  V30 BEGIN BOND
M  V30 1 1 1 2
M  V30 2 1 1 3
M  V30 3 2 2 4
M  V30 4 1 2 5
M  V30 5 1 4 6
M  V30 6 1 4 7
M  V30 7 2 5 8
M  V30 8 2 6 9
M  V30 9 1 6 10
M  V30 10 1 7 11
M  V30 11 2 7 12
M  V30 12 2 11 13
M  V30 13 1 11 14
M  V30 14 1 13 15
M  V30 15 2 14 16
M  V30 16 2 15 17
M  V30 17 1 15 18
M  V30 18 1 8 9
M  V30 19 1 10 12
M  V30 20 1 16 17
M  V30 21 1 3 19
M  V30 22 1 3 20
M  V30 23 1 3 21
M  V30 24 1 5 22
M  V30 25 1 8 23
M  V30 26 1 10 24
M  V30 27 1 12 25
M  V30 28 1 14 26
M  V30 29 1 16 27
M  V30 30 1 18 28
M  V30 31 1 18 29
M  V30 END BOND
M  V30 END CTAB
M  END
>  <Molecule Name>
GGEWEQJWGGJUHO-JLOFHYGUNA-N

>  <hs_clash>
0.0

>  <hs_total>
115.13061854900427

>  <Total Molweight>
241.253

>  <cLogP>
0.7902

>  <H-Acceptors>
6

>  <H-Donors>
2

>  <Polar Surface Area>
89.71

>  <Non-H Atoms>
18

>  <sp3-Atoms>
2

$$$$
YBKLJTXDSBEVRV-VUVPTNNRNA-N
Actelion Java MolfileCreator 2.0

  0  0  0  0  0  0              0 V3000
M  V30 BEGIN CTAB
M  V30 COUNTS 49 51 0 0 0
M  V30 BEGIN ATOM
M  V30 1 O 23.9175 3.3548 62.9834 0
M  V30 2 N 24.3119 4.4987 62.9786 0
M  V30 3 C 25.4418 4.8382 63.6987 0
M  V30 4 C 25.8977 6.225 63.6897 0
M  V30 5 C 26.2569 3.8831 64.4742 0
M  V30 6 O 25.1437 7.1821 63.0936 0
M  V30 7 N 27.0047 6.542 64.3696 0
M  V30 8 N 27.354 4.3391 65.1308 0
M  V30 9 N 25.9347 2.581 64.5267 0
M  V30 10 C 25.6132 8.5252 63.1036 0
M  V30 11 C 27.7004 5.6309 65.0657 0
M  V30 12 C 24.9193 9.2591 61.9883 0
M  V30 13 N 28.8041 6.021 65.6955 0
M  V30 14 C 25.4029 8.6928 60.6605 0
M  V30 15 C 25.2905 10.7259 62.089 0
M  V30 16 C 29.4359 7.2176 65.4358 0
M  V30 17 C 24.5425 9.3315 59.5931 0
M  V30 18 C 24.4869 11.4633 61.0314 0
M  V30 19 C 30.2252 7.7766 66.4416 0
M  V30 20 C 29.3201 7.8804 64.2122 0
M  V30 21 C 24.7465 10.846 59.646 0
M  V30 22 C 30.8813 8.9733 66.2735 0
M  V30 23 C 29.9821 9.1045 64.0443 0
M  V30 24 C 30.7832 9.655 65.0619 0
M  V30 25 C 31.4746 11.0077 64.9207 0
M  V30 26 O 31.4829 11.7379 65.905 0
M  V30 27 N 32.0321 11.5117 63.7137 0
M  V30 28 H 26.6041 2.0942 65.0881 0
M  V30 29 H 25.1052 2.4205 63.9921 0
M  V30 30 H 26.7015 8.5431 62.9441 0
M  V30 31 H 25.376 8.9985 64.068 0
M  V30 32 H 23.8292 9.1388 62.074 0
M  V30 33 H 29.4205 5.2752 65.9473 0
M  V30 34 H 26.4611 8.9467 60.5004 0
M  V30 35 H 25.2813 7.5998 60.6453 0
M  V30 36 H 26.3668 10.8565 61.9043 0
M  V30 37 H 25.0408 11.1111 63.089 0
M  V30 38 H 24.8366 8.9519 58.6037 0
M  V30 39 H 23.4845 9.0931 59.7774 0
M  V30 40 H 24.785 12.5222 61.02 0
M  V30 41 H 23.4155 11.3868 61.2692 0
M  V30 42 H 30.3237 7.2534 67.3812 0
M  V30 43 H 28.7319 7.4582 63.4109 0
M  V30 44 H 25.7852 11.0657 59.3587 0
M  V30 45 H 24.0597 11.3133 58.9248 0
M  V30 46 H 31.4717 9.3844 67.079 0
M  V30 47 H 29.8745 9.6381 63.1116 0
M  V30 48 H 32.4146 12.4352 63.6869 0
M  V30 49 H 32.0415 10.9426 62.8916 0
M  V30 END ATOM
M  V30 BEGIN BOND
M  V30 1 2 1 2
M  V30 2 1 2 3
M  V30 3 2 3 4
M  V30 4 1 3 5
M  V30 5 1 4 6
M  V30 6 1 4 7
M  V30 7 2 5 8
M  V30 8 1 5 9
M  V30 9 1 6 10
M  V30 10 2 7 11
M  V30 11 1 10 12
M  V30 12 1 11 13
M  V30 13 1 12 14
M  V30 14 1 12 15
M  V30 15 1 13 16
M  V30 16 1 14 17
M  V30 17 1 15 18
M  V30 18 2 16 19
M  V30 19 1 16 20
M  V30 20 1 17 21
M  V30 21 1 19 22
M  V30 22 2 20 23
M  V30 23 2 22 24
M  V30 24 1 24 25
M  V30 25 2 25 26
M  V30 26 1 25 27
M  V30 27 1 8 11
M  V30 28 1 18 21
M  V30 29 1 23 24
M  V30 30 1 9 28
M  V30 31 1 9 29
M  V30 32 1 10 30
M  V30 33 1 10 31
M  V30 34 1 12 32
M  V30 35 1 13 33
M  V30 36 1 14 34
M  V30 37 1 14 35
M  V30 38 1 15 36
M  V30 39 1 15 37
M  V30 40 1 17 38
M  V30 41 1 17 39
M  V30 42 1 18 40
M  V30 43 1 18 41
M  V30 44 1 19 42
M  V30 45 1 20 43
M  V30 46 1 21 44
M  V30 47 1 21 45
M  V30 48 1 22 46
M  V30 49 1 23 47
M  V30 50 1 27 48
M  V30 51 1 27 49
M  V30 END BOND
M  V30 END CTAB
M  END
>  <Molecule Name>
YBKLJTXDSBEVRV-VUVPTNNRNA-N

>  <hs_clash>
0.0

>  <hs_total>
114.84636771974846

>  <Total Molweight>
370.412

>  <cLogP>
2.5593

>  <H-Acceptors>
9

>  <H-Donors>
3

>  <Polar Surface Area>
145.58

>  <Non-H Atoms>
27

>  <sp3-Atoms>
8

$$$$
RFSDQDHHBKYQOD-BDGWVKIONA-N
Actelion Java MolfileCreator 2.0

  0  0  0  0  0  0              0 V3000
M  V30 BEGIN CTAB
M  V30 COUNTS 46 49 0 0 0
M  V30 BEGIN ATOM
M  V30 1 O 25.6955 7.1171 63.4791 0
M  V30 2 C 26.397 6.1528 64.1347 0
M  V30 3 C 26.0998 8.4932 63.4983 0
M  V30 4 N 27.5441 6.4366 64.7828 0
M  V30 5 C 25.8951 4.7691 64.1608 0
M  V30 6 C 25.2764 9.2509 62.4608 0
M  V30 7 C 28.2795 5.4929 65.4207 0
M  V30 8 N 24.8061 4.1053 63.6422 0
M  V30 9 C 26.7005 3.8335 64.8723 0
M  V30 10 C 25.5385 10.752 62.6344 0
M  V30 11 C 25.6621 8.7487 61.067 0
M  V30 12 N 27.8608 4.1938 65.4687 0
M  V30 13 N 29.4377 5.8587 66.0263 0
M  V30 14 C 24.9992 2.8072 64.0692 0
M  V30 15 N 26.1381 2.5861 64.81 0
M  V30 16 C 24.9957 11.5718 61.4647 0
M  V30 17 C 25.0611 9.5987 59.954 0
M  V30 18 C 30.0609 7.0603 65.8036 0
M  V30 19 C 25.5305 11.0381 60.142 0
M  V30 20 C 29.9844 7.7509 64.581 0
M  V30 21 C 30.8238 7.5991 66.8373 0
M  V30 22 C 30.6479 8.9728 64.4145 0
M  V30 23 C 31.4831 8.8133 66.6834 0
M  V30 24 C 31.4006 9.4992 65.4719 0
M  V30 25 O 32.0432 10.6627 65.3456 0
M  V30 26 H 27.1691 8.5696 63.2521 0
M  V30 27 H 25.9222 8.9192 64.4972 0
M  V30 28 H 24.2081 9.0512 62.6323 0
M  V30 29 H 25.0523 11.0921 63.5608 0
M  V30 30 H 26.6236 10.916 62.7084 0
M  V30 31 H 26.7579 8.7705 60.9749 0
M  V30 32 H 25.3048 7.7147 60.9533 0
M  V30 33 H 29.9795 5.1346 66.4531 0
M  V30 34 H 24.3018 2.0161 63.8372 0
M  V30 35 H 26.4715 1.7294 65.2038 0
M  V30 36 H 23.8972 11.5128 61.461 0
M  V30 37 H 25.3059 12.6205 61.5835 0
M  V30 38 H 23.9631 9.5561 60.0055 0
M  V30 39 H 25.3972 9.2228 58.9767 0
M  V30 40 H 25.1533 11.6588 59.316 0
M  V30 41 H 26.6298 11.0682 60.1513 0
M  V30 42 H 29.4106 7.3362 63.7655 0
M  V30 43 H 30.9042 7.0653 67.7729 0
M  V30 44 H 30.5794 9.5058 63.4776 0
M  V30 45 H 32.0578 9.2246 67.5 0
M  V30 46 H 31.8928 11.0151 64.4763 0
M  V30 END ATOM
M  V30 BEGIN BOND
M  V30 1 1 1 2
M  V30 2 1 1 3
M  V30 3 2 2 4
M  V30 4 1 2 5
M  V30 5 1 3 6
M  V30 6 1 4 7
M  V30 7 1 5 8
M  V30 8 2 5 9
M  V30 9 1 6 10
M  V30 10 1 6 11
M  V30 11 2 7 12
M  V30 12 1 7 13
M  V30 13 2 8 14
M  V30 14 1 9 15
M  V30 15 1 10 16
M  V30 16 1 11 17
M  V30 17 1 13 18
M  V30 18 1 16 19
M  V30 19 2 18 20
M  V30 20 1 18 21
M  V30 21 1 20 22
M  V30 22 2 21 23
M  V30 23 2 22 24
M  V30 24 1 24 25
M  V30 25 1 9 12
M  V30 26 1 14 15
M  V30 27 1 17 19
M  V30 28 1 23 24
M  V30 29 1 3 26
M  V30 30 1 3 27
M  V30 31 1 6 28
M  V30 32 1 10 29
M  V30 33 1 10 30
M  V30 34 1 11 31
M  V30 35 1 11 32
M  V30 36 1 13 33
M  V30 37 1 14 34
M  V30 38 1 15 35
M  V30 39 1 16 36
M  V30 40 1 16 37
M  V30 41 1 17 38
M  V30 42 1 17 39
M  V30 43 1 19 40
M  V30 44 1 19 41
M  V30 45 1 20 42
M  V30 46 1 21 43
M  V30 47 1 22 44
M  V30 48 1 23 45
M  V30 49 1 25 46
M  V30 END BOND
M  V30 END CTAB
M  END
>  <Molecule Name>
RFSDQDHHBKYQOD-BDGWVKIONA-N

>  <hs_clash>
0.0

>  <hs_total>
114.7693591552065

>  <Total Molweight>
339.398

>  <cLogP>
3.5649

>  <H-Acceptors>
7

>  <H-Donors>
3

>  <Polar Surface Area>
95.95

>  <Non-H Atoms>
25

>  <sp3-Atoms>
9

$$$$
HIONZGBUTNQAJK-LFNRWQDLNA-N
Actelion Java MolfileCreator 2.0

  0  0  0  0  0  0              0 V3000
M  V30 BEGIN CTAB
M  V30 COUNTS 46 48 0 0 0
M  V30 BEGIN ATOM
M  V30 1 O 24.0216 7.1997 62.9197 0
M  V30 2 N 25.1142 7.8807 62.5877 0 CHG=1
M  V30 3 O 24.9852 8.8341 61.7061 0 CHG=-1
M  V30 4 C 26.2705 7.564 63.0968 0
M  V30 5 C 27.4623 8.4287 63.0535 0
M  V30 6 C 26.3824 6.2816 63.7375 0
M  V30 7 N 27.501 9.6298 62.5109 0
M  V30 8 C 28.6662 7.9399 63.6373 0
M  V30 9 C 27.5929 5.8157 64.3194 0
M  V30 10 C 28.5494 9.934 61.4767 0
M  V30 11 C 26.5527 10.7087 62.9808 0
M  V30 12 C 28.7621 6.6525 64.266 0
M  V30 13 C 27.6094 4.5514 64.9191 0
M  V30 14 C 28.7784 11.4404 61.2829 0
M  V30 15 C 27.031 12.1193 62.615 0
M  V30 16 N 29.8868 6.2366 64.7866 0
M  V30 17 O 28.414 4.2787 65.7868 0
M  V30 18 N 26.7029 3.5931 64.5451 0
M  V30 19 O 27.5129 12.0812 61.2888 0
M  V30 20 C 31.2337 6.8371 64.5144 0
M  V30 21 C 31.4358 8.0461 65.4014 0
M  V30 22 C 31.2765 7.9927 66.7914 0
M  V30 23 C 31.774 9.3048 64.8902 0
M  V30 24 N 31.4333 9.067 67.613 0
M  V30 25 N 31.9437 10.4175 65.6685 0
M  V30 26 C 31.7599 10.2413 67.0102 0
M  V30 27 N 31.9046 11.2621 67.761 0
M  V30 28 H 25.5102 5.6459 63.7788 0
M  V30 29 H 29.5458 8.5657 63.6059 0
M  V30 30 H 29.4969 9.4726 61.7917 0
M  V30 31 H 28.2315 9.5009 60.517 0
M  V30 32 H 25.5697 10.5397 62.5174 0
M  V30 33 H 26.4585 10.6424 64.0749 0
M  V30 34 H 29.3987 11.8322 62.1026 0
M  V30 35 H 29.2834 11.6205 60.3225 0
M  V30 36 H 26.1936 12.8292 62.6886 0
M  V30 37 H 27.8359 12.4301 63.2972 0
M  V30 38 H 29.8148 5.6478 65.5916 0
M  V30 39 H 26.715 2.6949 64.9843 0
M  V30 40 H 26.0294 3.7925 63.8332 0
M  V30 41 H 32.0161 6.0932 64.7249 0
M  V30 42 H 31.2924 7.1427 63.4595 0
M  V30 43 H 31.0143 7.0451 67.2378 0
M  V30 44 H 31.9083 9.4032 63.8233 0
M  V30 45 H 31.7441 11.002 68.7132 0
M  V30 46 H 31.2484 11.9684 67.4943 0
M  V30 END ATOM
M  V30 BEGIN BOND
M  V30 1 2 1 2
M  V30 2 1 2 3
M  V30 3 1 2 4
M  V30 4 2 4 5
M  V30 5 1 4 6
M  V30 6 1 5 7
M  V30 7 1 5 8
M  V30 8 2 6 9
M  V30 9 1 7 10
M  V30 10 1 7 11
M  V30 11 2 8 12
M  V30 12 1 9 13
M  V30 13 1 10 14
M  V30 14 1 11 15
M  V30 15 1 12 16
M  V30 16 2 13 17
M  V30 17 1 13 18
M  V30 18 1 14 19
M  V30 19 1 16 20
M  V30 20 1 20 21
M  V30 21 2 21 22
M  V30 22 1 21 23
M  V30 23 1 22 24
M  V30 24 2 23 25
M  V30 25 2 24 26
M  V30 26 1 26 27
M  V30 27 1 9 12
M  V30 28 1 15 19
M  V30 29 1 25 26
M  V30 30 1 6 28
M  V30 31 1 8 29
M  V30 32 1 10 30
M  V30 33 1 10 31
M  V30 34 1 11 32
M  V30 35 1 11 33
M  V30 36 1 14 34
M  V30 37 1 14 35
M  V30 38 1 15 36
M  V30 39 1 15 37
M  V30 40 1 16 38
M  V30 41 1 18 39
M  V30 42 1 18 40
M  V30 43 1 20 41
M  V30 44 1 20 42
M  V30 45 1 22 43
M  V30 46 1 23 44
M  V30 47 1 27 45
M  V30 48 1 27 46
M  V30 END BOND
M  V30 END CTAB
M  END
>  <Molecule Name>
HIONZGBUTNQAJK-LFNRWQDLNA-N

>  <hs_clash>
0.0

>  <hs_total>
114.46962761996589

>  <Total Molweight>
373.372

>  <cLogP>
-1.3116

>  <H-Acceptors>
11

>  <H-Donors>
3

>  <Polar Surface Area>
165.21

>  <Non-H Atoms>
27

>  <sp3-Atoms>
8

$$$$
ZCRPPLDDHBLUES-HCKMINDGNA-N
Actelion Java MolfileCreator 2.0

  0  0  0  0  0  0              0 V3000
M  V30 BEGIN CTAB
M  V30 COUNTS 33 35 0 0 0
M  V30 BEGIN ATOM
M  V30 1 O 29.4128 7.8024 64.272 0
M  V30 2 C 30.0406 7.1471 65.112 0
M  V30 3 N 29.6636 5.9268 65.514 0
M  V30 4 C 31.2806 7.734 65.7207 0
M  V30 5 C 28.4914 5.2443 65.0069 0
M  V30 6 N 27.5453 5.8898 64.1489 0
M  V30 7 N 28.2148 3.8768 65.3423 0
M  V30 8 C 26.4816 5.2179 63.7096 0
M  V30 9 C 27.1356 3.2816 64.8436 0
M  V30 10 C 25.5348 5.9148 62.7726 0
M  V30 11 C 26.292 3.9237 64.0548 0
M  V30 12 N 25.7825 7.1723 62.102 0
M  V30 13 C 24.2064 5.4491 62.2712 0
M  V30 14 C 24.6752 7.4366 61.2863 0
M  V30 15 C 26.8112 8.0458 62.1274 0
M  V30 16 N 23.7499 6.3885 61.4101 0
M  V30 17 C 23.4319 4.2132 62.6279 0
M  V30 18 C 24.6413 8.5996 60.5199 0
M  V30 19 C 26.8053 9.2281 61.3663 0
M  V30 20 C 25.7063 9.5113 60.5581 0
M  V30 21 H 30.2214 5.4621 66.2015 0
M  V30 22 H 31.4594 8.7338 65.2977 0
M  V30 23 H 31.1512 7.8151 66.8101 0
M  V30 24 H 32.1398 7.084 65.5007 0
M  V30 25 H 26.9434 2.2477 65.0895 0
M  V30 26 H 25.4271 3.4005 63.6748 0
M  V30 27 H 27.6655 7.8299 62.7518 0
M  V30 28 H 23.2118 4.216 63.7058 0
M  V30 29 H 22.489 4.1954 62.0616 0
M  V30 30 H 24.0269 3.323 62.3775 0
M  V30 31 H 23.787 8.8009 59.8908 0
M  V30 32 H 27.6428 9.9087 61.4078 0
M  V30 33 H 25.6749 10.4175 59.9713 0
M  V30 END ATOM
M  V30 BEGIN BOND
M  V30 1 2 1 2
M  V30 2 1 2 3
M  V30 3 1 2 4
M  V30 4 1 3 5
M  V30 5 2 5 6
M  V30 6 1 5 7
M  V30 7 1 6 8
M  V30 8 2 7 9
M  V30 9 1 8 10
M  V30 10 2 8 11
M  V30 11 1 10 12
M  V30 12 2 10 13
M  V30 13 1 12 14
M  V30 14 1 12 15
M  V30 15 1 13 16
M  V30 16 1 13 17
M  V30 17 1 14 18
M  V30 18 2 15 19
M  V30 19 2 18 20
M  V30 20 1 9 11
M  V30 21 2 14 16
M  V30 22 1 19 20
M  V30 23 1 3 21
M  V30 24 1 4 22
M  V30 25 1 4 23
M  V30 26 1 4 24
M  V30 27 1 9 25
M  V30 28 1 11 26
M  V30 29 1 15 27
M  V30 30 1 17 28
M  V30 31 1 17 29
M  V30 32 1 17 30
M  V30 33 1 18 31
M  V30 34 1 19 32
M  V30 35 1 20 33
M  V30 END BOND
M  V30 END CTAB
M  END
>  <Molecule Name>
ZCRPPLDDHBLUES-HCKMINDGNA-N

>  <hs_clash>
0.0

>  <hs_total>
114.23896597561689

>  <Total Molweight>
267.291

>  <cLogP>
1.3512

>  <H-Acceptors>
6

>  <H-Donors>
1

>  <Polar Surface Area>
72.18

>  <Non-H Atoms>
20

>  <sp3-Atoms>
2

$$$$
IBUPHWYGVDAASU-UHFFFAOYNA-N
Actelion Java MolfileCreator 2.0

  0  0  0  0  0  0              0 V3000
M  V30 BEGIN CTAB
M  V30 COUNTS 38 41 0 0 0
M  V30 BEGIN ATOM
M  V30 1 Br 24.7103 3.6179 63.315 0
M  V30 2 C 26.3518 4.2384 63.8622 0
M  V30 3 C 26.9011 5.4556 63.5409 0
M  V30 4 C 27.2735 3.5788 64.6828 0
M  V30 5 N 28.1161 5.5085 64.1565 0
M  V30 6 C 26.4086 6.5353 62.7329 0
M  V30 7 N 28.349 4.3394 64.8706 0
M  V30 8 C 28.9361 6.6043 64.0375 0
M  V30 9 C 27.1986 7.639 62.5981 0
M  V30 10 N 30.1521 6.5616 64.687 0
M  V30 11 C 28.4769 7.6733 63.2584 0
M  V30 12 C 26.7591 8.8055 61.7828 0
M  V30 13 C 31.192 7.5146 64.3137 0
M  V30 14 C 26.625 8.7086 60.3862 0
M  V30 15 C 26.4579 10.0165 62.4067 0
M  V30 16 C 31.26 8.5377 65.3934 0
M  V30 17 C 26.1998 9.8148 59.6357 0
M  V30 18 C 26.0387 11.1217 61.66 0
M  V30 19 C 31.4631 8.1981 66.7353 0
M  V30 20 C 31.0658 9.8964 65.1232 0
M  V30 21 C 25.9074 11.0217 60.2726 0
M  V30 22 N 31.4966 9.1074 67.71 0
M  V30 23 N 31.0842 10.8304 66.082 0
M  V30 24 C 31.3178 10.3779 67.3269 0
M  V30 25 H 27.1322 2.5942 65.1034 0
M  V30 26 H 25.4452 6.4756 62.2482 0
M  V30 27 H 30.402 5.7424 65.2032 0
M  V30 28 H 29.0998 8.5486 63.1497 0
M  V30 29 H 32.1594 6.9996 64.2214 0
M  V30 30 H 30.9382 7.9934 63.3566 0
M  V30 31 H 26.8507 7.7771 59.889 0
M  V30 32 H 26.5492 10.1014 63.4795 0
M  V30 33 H 26.0983 9.7321 58.5636 0
M  V30 34 H 25.8154 12.0545 62.1566 0
M  V30 35 H 31.5979 7.1581 66.9921 0
M  V30 36 H 30.8941 10.2037 64.1023 0
M  V30 37 H 25.5815 11.8746 59.6956 0
M  V30 38 H 31.3668 11.1244 68.1061 0
M  V30 END ATOM
M  V30 BEGIN BOND
M  V30 1 1 1 2
M  V30 2 2 2 3
M  V30 3 1 2 4
M  V30 4 1 3 5
M  V30 5 1 3 6
M  V30 6 2 4 7
M  V30 7 1 5 8
M  V30 8 2 6 9
M  V30 9 1 8 10
M  V30 10 2 8 11
M  V30 11 1 9 12
M  V30 12 1 10 13
M  V30 13 2 12 14
M  V30 14 1 12 15
M  V30 15 1 13 16
M  V30 16 1 14 17
M  V30 17 2 15 18
M  V30 18 2 16 19
M  V30 19 1 16 20
M  V30 20 2 17 21
M  V30 21 1 19 22
M  V30 22 2 20 23
M  V30 23 2 22 24
M  V30 24 1 5 7
M  V30 25 1 9 11
M  V30 26 1 18 21
M  V30 27 1 23 24
M  V30 28 1 4 25
M  V30 29 1 6 26
M  V30 30 1 10 27
M  V30 31 1 11 28
M  V30 32 1 13 29
M  V30 33 1 13 30
M  V30 34 1 14 31
M  V30 35 1 15 32
M  V30 36 1 17 33
M  V30 37 1 18 34
M  V30 38 1 19 35
M  V30 39 1 20 36
M  V30 40 1 21 37
M  V30 41 1 24 38
M  V30 END BOND
M  V30 END CTAB
M  END
>  <Molecule Name>
IBUPHWYGVDAASU-UHFFFAOYNA-N

>  <hs_clash>
0.0

>  <hs_total>
114.1303394118034

>  <Total Molweight>
380.248

>  <cLogP>
2.518

>  <H-Acceptors>
5

>  <H-Donors>
1

>  <Polar Surface Area>
55.11

>  <Non-H Atoms>
24

>  <sp3-Atoms>
1

$$$$
GTQOUNMUULYWFG-JQHVODBVNA-N
Actelion Java MolfileCreator 2.0

  0  0  0  0  0  0              0 V3000
M  V30 BEGIN CTAB
M  V30 COUNTS 49 52 0 0 0
M  V30 BEGIN ATOM
M  V30 1 O 25.5398 7.0598 63.3016 0
M  V30 2 C 26.2817 6.1888 64.0727 0
M  V30 3 C 24.557 6.4858 62.3549 0
M  V30 4 N 25.8432 4.9106 64.1832 0
M  V30 5 C 27.434 6.6415 64.6374 0
M  V30 6 C 24.5914 7.6441 61.4491 0
M  V30 7 C 26.6002 4.0339 64.8839 0
M  V30 8 N 28.0975 7.8662 64.647 0
M  V30 9 C 28.1816 5.7268 65.3786 0
M  V30 10 C 25.1919 7.3251 60.0345 0
M  V30 11 C 23.2483 8.4234 61.334 0
M  V30 12 N 27.7336 4.4218 65.5592 0
M  V30 13 N 26.1059 2.8531 64.8824 0
M  V30 14 C 29.2442 7.6924 65.3951 0
M  V30 15 N 29.2768 6.4087 65.8437 0
M  V30 16 C 25.7655 8.6703 59.5863 0
M  V30 17 C 23.6739 9.8042 60.6103 0
M  V30 18 C 30.1681 8.6049 65.83 0
M  V30 19 C 24.5901 9.6422 59.3558 0
M  V30 20 C 30.7783 9.612 65.0578 0
M  V30 21 C 30.47 8.5888 67.2395 0
M  V30 22 C 31.716 10.4615 65.7553 0
M  V30 23 C 30.511 9.6863 63.6534 0
M  V30 24 C 31.3536 9.4627 67.8876 0
M  V30 25 O 32.3286 11.4086 65.0314 0
M  V30 26 C 32.0315 10.4158 67.129 0
M  V30 27 H 24.9048 5.5562 61.8817 0
M  V30 28 H 23.5677 6.3196 62.8067 0
M  V30 29 H 25.2961 8.3579 61.9002 0
M  V30 30 H 25.9819 6.5632 60.1045 0
M  V30 31 H 24.4094 6.9801 59.3428 0
M  V30 32 H 22.8194 8.617 62.3284 0
M  V30 33 H 22.522 7.8672 60.7235 0
M  V30 34 H 25.2569 2.8472 64.3541 0
M  V30 35 H 26.6969 2.2433 65.4102 0
M  V30 36 H 29.9916 6.0207 66.4252 0
M  V30 37 H 26.4311 9.0697 60.3656 0
M  V30 38 H 26.3306 8.5413 58.6518 0
M  V30 39 H 24.2096 10.4227 61.3454 0
M  V30 40 H 22.7551 10.3211 60.2963 0
M  V30 41 H 24.9983 10.6287 59.0909 0
M  V30 42 H 23.9797 9.2624 58.5234 0
M  V30 43 H 29.9755 7.8435 67.8449 0
M  V30 44 H 31.1255 10.4802 63.2041 0
M  V30 45 H 30.7552 8.7228 63.1826 0
M  V30 46 H 29.4464 9.9126 63.4944 0
M  V30 47 H 31.5063 9.399 68.9549 0
M  V30 48 H 33.0727 11.7462 65.5159 0
M  V30 49 H 32.7582 11.0826 67.5693 0
M  V30 END ATOM
M  V30 BEGIN BOND
M  V30 1 1 1 2
M  V30 2 1 1 3
M  V30 3 2 2 4
M  V30 4 1 2 5
M  V30 5 1 3 6
M  V30 6 1 4 7
M  V30 7 1 5 8
M  V30 8 2 5 9
M  V30 9 1 6 10
M  V30 10 1 6 11
M  V30 11 2 7 12
M  V30 12 1 7 13
M  V30 13 2 8 14
M  V30 14 1 9 15
M  V30 15 1 10 16
M  V30 16 1 11 17
M  V30 17 1 14 18
M  V30 18 1 16 19
M  V30 19 2 18 20
M  V30 20 1 18 21
M  V30 21 1 20 22
M  V30 22 1 20 23
M  V30 23 2 21 24
M  V30 24 1 22 25
M  V30 25 2 22 26
M  V30 26 1 9 12
M  V30 27 1 14 15
M  V30 28 1 17 19
M  V30 29 1 24 26
M  V30 30 1 3 27
M  V30 31 1 3 28
M  V30 32 1 6 29
M  V30 33 1 10 30
M  V30 34 1 10 31
M  V30 35 1 11 32
M  V30 36 1 11 33
M  V30 37 1 13 34
M  V30 38 1 13 35
M  V30 39 1 15 36
M  V30 40 1 16 37
M  V30 41 1 16 38
M  V30 42 1 17 39
M  V30 43 1 17 40
M  V30 44 1 19 41
M  V30 45 1 19 42
M  V30 46 1 21 43
M  V30 47 1 23 44
M  V30 48 1 23 45
M  V30 49 1 23 46
M  V30 50 1 24 47
M  V30 51 1 25 48
M  V30 52 1 26 49
M  V30 END BOND
M  V30 END CTAB
M  END
>  <Molecule Name>
GTQOUNMUULYWFG-JQHVODBVNA-N

>  <hs_clash>
0.0

>  <hs_total>
113.88836034297579

>  <Total Molweight>
353.425

>  <cLogP>
3.3441

>  <H-Acceptors>
7

>  <H-Donors>
3

>  <Polar Surface Area>
109.94

>  <Non-H Atoms>
26

>  <sp3-Atoms>
10

$$$$
XNRIWHPUEZHUFJ-BUKGPZPNNA-N
Actelion Java MolfileCreator 2.0

  0  0  0  0  0  0              0 V3000
M  V30 BEGIN CTAB
M  V30 COUNTS 41 43 0 0 0
M  V30 BEGIN ATOM
M  V30 1 S 33.2393 10.6351 64.7035 0
M  V30 2 O 34.3217 10.1162 63.898 0
M  V30 3 O 33.7651 11.169 65.9567 0
M  V30 4 N 32.414 11.8258 63.835 0
M  V30 5 C 32.1611 9.2761 65.0177 0
M  V30 6 C 31.1568 8.9435 64.0743 0
M  V30 7 C 32.3175 8.5177 66.2029 0
M  V30 8 C 30.3061 7.8413 64.3168 0
M  V30 9 C 31.4788 7.4264 66.4461 0
M  V30 10 C 30.4563 7.062 65.5115 0
M  V30 11 N 29.7223 6.0247 65.8086 0
M  V30 12 C 28.7209 5.4879 65.1444 0
M  V30 13 S 27.6568 6.3385 64.0883 0
M  V30 14 N 28.4583 4.2094 65.2711 0
M  V30 15 C 26.7603 4.8882 63.7595 0
M  V30 16 C 27.3475 3.8565 64.4901 0
M  V30 17 C 25.6406 4.7653 62.9107 0
M  V30 18 N 26.9116 2.6612 64.4596 0
M  V30 19 O 25.0253 3.6965 62.8812 0
M  V30 20 C 25.1896 5.826 62.1025 0
M  V30 21 C 26.0984 6.6492 61.3422 0
M  V30 22 C 23.7938 6.1065 62.0309 0
M  V30 23 C 25.6014 7.7301 60.5359 0
M  V30 24 C 23.3117 7.1764 61.2296 0
M  V30 25 N 26.4077 8.4715 59.8616 0
M  V30 26 C 24.2106 7.9881 60.4859 0
M  V30 27 H 32.4901 11.6377 62.8559 0
M  V30 28 H 32.813 12.7209 64.0342 0
M  V30 29 H 31.0423 9.5297 63.1744 0
M  V30 30 H 33.0832 8.7816 66.9174 0
M  V30 31 H 29.5398 7.585 63.6002 0
M  V30 32 H 31.6028 6.8504 67.3512 0
M  V30 33 H 30.2451 5.3348 66.3094 0
M  V30 34 H 25.9644 2.6428 64.78 0
M  V30 35 H 27.4747 2.0856 65.0527 0
M  V30 36 H 27.1595 6.4518 61.3794 0
M  V30 37 H 23.0962 5.5004 62.5905 0
M  V30 38 H 22.2511 7.3755 61.1857 0
M  V30 39 H 26.1816 8.4119 58.8894 0
M  V30 40 H 27.3469 8.1594 60.0048 0
M  V30 41 H 23.8329 8.8005 59.8829 0
M  V30 END ATOM
M  V30 BEGIN BOND
M  V30 1 2 1 2
M  V30 2 2 1 3
M  V30 3 1 1 4
M  V30 4 1 1 5
M  V30 5 2 5 6
M  V30 6 1 5 7
M  V30 7 1 6 8
M  V30 8 2 7 9
M  V30 9 2 8 10
M  V30 10 1 10 11
M  V30 11 1 11 12
M  V30 12 1 12 13
M  V30 13 2 12 14
M  V30 14 1 13 15
M  V30 15 1 14 16
M  V30 16 1 15 17
M  V30 17 1 16 18
M  V30 18 2 17 19
M  V30 19 1 17 20
M  V30 20 2 20 21
M  V30 21 1 20 22
M  V30 22 1 21 23
M  V30 23 2 22 24
M  V30 24 1 23 25
M  V30 25 2 23 26
M  V30 26 1 9 10
M  V30 27 2 15 16
M  V30 28 1 24 26
M  V30 29 1 4 27
M  V30 30 1 4 28
M  V30 31 1 6 29
M  V30 32 1 7 30
M  V30 33 1 8 31
M  V30 34 1 9 32
M  V30 35 1 11 33
M  V30 36 1 18 34
M  V30 37 1 18 35
M  V30 38 1 21 36
M  V30 39 1 22 37
M  V30 40 1 24 38
M  V30 41 1 25 39
M  V30 42 1 25 40
M  V30 43 1 26 41
M  V30 END BOND
M  V30 END CTAB
M  END
>  <Molecule Name>
XNRIWHPUEZHUFJ-BUKGPZPNNA-N

>  <hs_clash>
3.0

>  <hs_total>
113.33564871319463

>  <Total Molweight>
389.459

>  <cLogP>
1.7883

>  <H-Acceptors>
8

>  <H-Donors>
4

>  <Polar Surface Area>
190.81

>  <Non-H Atoms>
26

>  <sp3-Atoms>
1

$$$$
ZOBRPBVIEUWYJR-OECRTTLXNA-M
Actelion Java MolfileCreator 2.0

  0  0  0  0  0  0              0 V3000
M  V30 BEGIN CTAB
M  V30 COUNTS 38 41 0 0 0
M  V30 BEGIN ATOM
M  V30 1 O 22.0403 8.025 61.2851 0
M  V30 2 C 22.4268 6.7789 61.7108 0
M  V30 3 O 21.8192 5.7444 61.4336 0 CHG=-1
M  V30 4 C 23.6889 6.8229 62.5627 0
M  V30 5 N 24.3735 7.9891 62.8738 0
M  V30 6 C 24.3496 5.7502 63.1532 0
M  V30 7 N 25.4511 7.6965 63.6435 0
M  V30 8 C 25.4714 6.2934 63.8432 0
M  V30 9 C 24.0127 4.2245 63.194 0
M  V30 10 C 26.3508 8.796 64.1078 0
M  V30 11 C 26.3987 5.477 64.5775 0
M  V30 12 C 24.7455 3.4316 64.3345 0
M  V30 13 N 27.5839 5.968 64.984 0
M  V30 14 C 26.0673 4.0784 64.8464 0
M  V30 15 C 28.44 5.1738 65.6213 0
M  V30 16 C 27.0605 3.3229 65.5326 0
M  V30 17 N 28.2273 3.8816 65.9074 0
M  V30 18 N 29.671 5.8261 65.9981 0
M  V30 19 C 30.235 7.1588 65.8619 0
M  V30 20 C 30.0637 7.9769 64.6958 0
M  V30 21 C 30.9965 7.6649 66.959 0
M  V30 22 C 30.6444 9.2697 64.6381 0
M  V30 23 C 31.5764 8.9591 66.8975 0
M  V30 24 C 31.398 9.7583 65.7372 0
M  V30 25 H 24.2989 3.7825 62.2282 0
M  V30 26 H 22.9279 4.115 63.3404 0
M  V30 27 H 27.1642 8.3728 64.7155 0
M  V30 28 H 26.7758 9.3146 63.2359 0
M  V30 29 H 25.774 9.5104 64.7142 0
M  V30 30 H 24.9826 2.4278 63.9529 0
M  V30 31 H 24.0556 3.3464 65.1873 0
M  V30 32 H 26.8745 2.2829 65.7569 0
M  V30 33 H 30.1666 5.2922 66.6834 0
M  V30 34 H 29.4901 7.6071 63.8589 0
M  V30 35 H 31.132 7.0583 67.8423 0
M  V30 36 H 30.5132 9.8822 63.7581 0
M  V30 37 H 32.1515 9.3352 67.7309 0
M  V30 38 H 31.8383 10.7435 65.6907 0
M  V30 END ATOM
M  V30 BEGIN BOND
M  V30 1 2 1 2
M  V30 2 1 2 3
M  V30 3 1 2 4
M  V30 4 2 4 5
M  V30 5 1 4 6
M  V30 6 1 5 7
M  V30 7 2 6 8
M  V30 8 1 6 9
M  V30 9 1 7 10
M  V30 10 1 8 11
M  V30 11 1 9 12
M  V30 12 2 11 13
M  V30 13 1 11 14
M  V30 14 1 13 15
M  V30 15 2 14 16
M  V30 16 2 15 17
M  V30 17 1 15 18
M  V30 18 1 18 19
M  V30 19 2 19 20
M  V30 20 1 19 21
M  V30 21 1 20 22
M  V30 22 2 21 23
M  V30 23 2 22 24
M  V30 24 1 7 8
M  V30 25 1 12 14
M  V30 26 1 16 17
M  V30 27 1 23 24
M  V30 28 1 9 25
M  V30 29 1 9 26
M  V30 30 1 10 27
M  V30 31 1 10 28
M  V30 32 1 10 29
M  V30 33 1 12 30
M  V30 34 1 12 31
M  V30 35 1 16 32
M  V30 36 1 18 33
M  V30 37 1 20 34
M  V30 38 1 21 35
M  V30 39 1 22 36
M  V30 40 1 23 37
M  V30 41 1 24 38
M  V30 END BOND
M  V30 END CTAB
M  END
>  <Molecule Name>
ZOBRPBVIEUWYJR-OECRTTLXNA-M

>  <hs_clash>
0.0

>  <hs_total>
112.7108955999907

>  <Total Molweight>
320.331

>  <cLogP>
-0.1643

>  <H-Acceptors>
7

>  <H-Donors>
1

>  <Polar Surface Area>
95.76

>  <Non-H Atoms>
24

>  <sp3-Atoms>
4

$$$$
JOUPSJAGJHYWLM-PZWAIHAUNA-N
Actelion Java MolfileCreator 2.0

  0  0  0  0  0  0              0 V3000
M  V30 BEGIN CTAB
M  V30 COUNTS 21 22 0 0 0
M  V30 BEGIN ATOM
M  V30 1 O 28.8909 7.4542 64.3018 0
M  V30 2 C 29.1761 6.4088 64.897 0
M  V30 3 N 30.1739 6.3217 65.7786 0
M  V30 4 C 28.4055 5.1395 64.6773 0
M  V30 5 N 30.9575 7.4271 66.0843 0
M  V30 6 N 28.6338 3.9822 65.2645 0
M  V30 7 C 27.285 5.0505 63.759 0
M  V30 8 N 27.7113 3.1127 64.7766 0
M  V30 9 C 26.8453 3.6745 63.8553 0
M  V30 10 C 26.5655 5.9123 62.8547 0
M  V30 11 C 25.7444 3.1679 63.0941 0
M  V30 12 C 25.4586 5.4135 62.0845 0
M  V30 13 C 25.0502 4.0469 62.2019 0
M  V30 14 H 30.3603 5.4472 66.2263 0
M  V30 15 H 31.6486 7.1702 66.7597 0
M  V30 16 H 31.4084 7.7556 65.2545 0
M  V30 17 H 27.6625 2.1543 65.0576 0
M  V30 18 H 26.8616 6.9462 62.7546 0
M  V30 19 H 25.4412 2.136 63.1913 0
M  V30 20 H 24.9318 6.0748 61.4124 0
M  V30 21 H 24.2191 3.679 61.6186 0
M  V30 END ATOM
M  V30 BEGIN BOND
M  V30 1 2 1 2
M  V30 2 1 2 3
M  V30 3 1 2 4
M  V30 4 1 3 5
M  V30 5 2 4 6
M  V30 6 1 4 7
M  V30 7 1 6 8
M  V30 8 2 7 9
M  V30 9 1 7 10
M  V30 10 1 9 11
M  V30 11 2 10 12
M  V30 12 2 11 13
M  V30 13 1 8 9
M  V30 14 1 12 13
M  V30 15 1 3 14
M  V30 16 1 5 15
M  V30 17 1 5 16
M  V30 18 1 8 17
M  V30 19 1 10 18
M  V30 20 1 11 19
M  V30 21 1 12 20
M  V30 22 1 13 21
M  V30 END BOND
M  V30 END CTAB
M  END
>  <Molecule Name>
JOUPSJAGJHYWLM-PZWAIHAUNA-N

>  <hs_clash>
0.0

>  <hs_total>
112.70744865931833

>  <Total Molweight>
176.179

>  <cLogP>
-0.7527

>  <H-Acceptors>
5

>  <H-Donors>
3

>  <Polar Surface Area>
83.8

>  <Non-H Atoms>
13

>  <sp3-Atoms>
1

$$$$
BKUMVXIXUVYKDQ-VENDMBCDNA-N
Actelion Java MolfileCreator 2.0

  0  0  0  0  0  0              0 V3000
M  V30 BEGIN CTAB
M  V30 COUNTS 34 36 0 0 0
M  V30 BEGIN ATOM
M  V30 1 S 31.7185 11.2175 64.2247 0
M  V30 2 O 32.7522 10.8729 63.1978 0
M  V30 3 O 32.3969 11.4951 65.5423 0
M  V30 4 N 30.9019 12.5441 63.7411 0
M  V30 5 C 30.5884 9.8548 64.4095 0
M  V30 6 C 30.7386 8.9603 65.4727 0
M  V30 7 C 29.5562 9.6753 63.4892 0
M  V30 8 C 29.8578 7.8878 65.611 0
M  V30 9 C 28.6752 8.6056 63.6314 0
M  V30 10 C 28.8235 7.7123 64.694 0
M  V30 11 C 27.9433 6.6364 64.821 0
M  V30 12 O 26.6997 6.5662 64.292 0
M  V30 13 C 28.1894 5.4786 65.4451 0
M  V30 14 C 26.1861 5.3522 64.6121 0
M  V30 15 C 27.1085 4.692 65.3198 0
M  V30 16 C 24.8387 4.8453 64.2316 0
M  V30 17 C 24.2167 5.33 63.1309 0
M  V30 18 S 24.1721 6.9377 62.7069 0
M  V30 19 C 23.5231 4.5458 62.2068 0
M  V30 20 C 23.264 6.6133 61.3325 0
M  V30 21 O 23.4026 3.3285 62.2879 0
M  V30 22 N 22.9962 5.2961 61.1998 0
M  V30 23 N 22.8519 7.5455 60.4776 0
M  V30 24 H 30.8729 12.5723 62.7421 0
M  V30 25 H 30.2132 12.781 64.4264 0
M  V30 26 H 31.5364 9.0995 66.1872 0
M  V30 27 H 29.4395 10.3656 62.6667 0
M  V30 28 H 29.9775 7.1933 66.4293 0
M  V30 29 H 27.876 8.4672 62.9182 0
M  V30 30 H 29.1021 5.2209 65.9618 0
M  V30 31 H 27.0021 3.6956 65.7223 0
M  V30 32 H 24.3568 4.0899 64.8348 0
M  V30 33 H 22.4672 4.9129 60.4427 0
M  V30 34 H 23.0807 8.5059 60.6363 0
M  V30 END ATOM
M  V30 BEGIN BOND
M  V30 1 2 1 2
M  V30 2 2 1 3
M  V30 3 1 1 4
M  V30 4 1 1 5
M  V30 5 2 5 6
M  V30 6 1 5 7
M  V30 7 1 6 8
M  V30 8 2 7 9
M  V30 9 2 8 10
M  V30 10 1 10 11
M  V30 11 1 11 12
M  V30 12 2 11 13
M  V30 13 1 12 14
M  V30 14 1 13 15
M  V30 15 1 14 16
M  V30 16 2 16 17
M  V30 17 1 17 18
M  V30 18 1 17 19
M  V30 19 1 18 20
M  V30 20 2 19 21
M  V30 21 1 19 22
M  V30 22 2 20 23
M  V30 23 1 9 10
M  V30 24 2 14 15
M  V30 25 1 20 22
M  V30 26 1 4 24
M  V30 27 1 4 25
M  V30 28 1 6 26
M  V30 29 1 7 27
M  V30 30 1 8 28
M  V30 31 1 9 29
M  V30 32 1 13 30
M  V30 33 1 15 31
M  V30 34 1 16 32
M  V30 35 1 22 33
M  V30 36 1 23 34
M  V30 END BOND
M  V30 END CTAB
M  END
>  <Molecule Name>
BKUMVXIXUVYKDQ-VENDMBCDNA-N

>  <hs_clash>
5.0

>  <hs_total>
112.6836320031489

>  <Total Molweight>
349.390

>  <cLogP>
0.7933

>  <H-Acceptors>
7

>  <H-Donors>
3

>  <Polar Surface Area>
159.93

>  <Non-H Atoms>
23

>  <sp3-Atoms>
2

$$$$
JYLDWTJXERPEGH-YAQRNVERNA-N
Actelion Java MolfileCreator 2.0

  0  0  0  0  0  0              0 V3000
M  V30 BEGIN CTAB
M  V30 COUNTS 30 31 0 0 0
M  V30 BEGIN ATOM
M  V30 1 S 27.7534 6.5954 64.1985 0
M  V30 2 C 28.7841 5.7053 65.2768 0
M  V30 3 C 26.9542 5.1024 63.8148 0
M  V30 4 N 28.5322 4.3894 65.3401 0
M  V30 5 N 29.7924 6.2562 66.0212 0
M  V30 6 C 27.5256 4.0444 64.5371 0
M  V30 7 C 25.8957 4.9951 62.907 0
M  V30 8 C 30.1261 7.6616 65.8866 0
M  V30 9 N 27.1396 2.7627 64.4622 0
M  V30 10 O 25.3273 3.7863 62.6631 0
M  V30 11 C 25.2936 6.1361 62.1418 0
M  V30 12 C 31.3942 7.8269 65.1071 0
M  V30 13 C 26.0934 7.0593 61.395 0
M  V30 14 C 23.8648 6.2979 62.1619 0
M  V30 15 C 31.3977 7.8183 63.6443 0
M  V30 16 C 25.4612 8.1173 60.6904 0
M  V30 17 C 23.2773 7.369 61.442 0
M  V30 18 N 24.0806 8.2424 60.7321 0
M  V30 19 H 30.4553 5.6464 66.4552 0
M  V30 20 H 29.3089 8.1793 65.3627 0
M  V30 21 H 30.2561 8.1004 66.8869 0
M  V30 22 H 27.7086 2.2069 65.0682 0
M  V30 23 H 26.3782 2.6805 63.8191 0
M  V30 24 H 32.3265 7.9555 65.6368 0
M  V30 25 H 27.1676 6.952 61.3684 0
M  V30 26 H 23.2455 5.6109 62.7198 0
M  V30 27 H 32.3258 7.9395 63.1059 0
M  V30 28 H 30.4718 7.6909 63.1029 0
M  V30 29 H 26.0524 8.8217 60.1242 0
M  V30 30 H 22.2054 7.5025 61.4479 0
M  V30 END ATOM
M  V30 BEGIN BOND
M  V30 1 1 1 2
M  V30 2 1 1 3
M  V30 3 2 2 4
M  V30 4 1 2 5
M  V30 5 2 3 6
M  V30 6 1 3 7
M  V30 7 1 5 8
M  V30 8 1 6 9
M  V30 9 2 7 10
M  V30 10 1 7 11
M  V30 11 1 8 12
M  V30 12 2 11 13
M  V30 13 1 11 14
M  V30 14 2 12 15
M  V30 15 1 13 16
M  V30 16 2 14 17
M  V30 17 2 16 18
M  V30 18 1 4 6
M  V30 19 1 17 18
M  V30 20 1 5 19
M  V30 21 1 8 20
M  V30 22 1 8 21
M  V30 23 1 9 22
M  V30 24 1 9 23
M  V30 25 1 12 24
M  V30 26 1 13 25
M  V30 27 1 14 26
M  V30 28 1 15 27
M  V30 29 1 15 28
M  V30 30 1 16 29
M  V30 31 1 17 30
M  V30 END BOND
M  V30 END CTAB
M  END
>  <Molecule Name>
JYLDWTJXERPEGH-YAQRNVERNA-N

>  <hs_clash>
0.0

>  <hs_total>
112.62951245631848

>  <Total Molweight>
260.320

>  <cLogP>
1.4925

>  <H-Acceptors>
5

>  <H-Donors>
2

>  <Polar Surface Area>
109.14

>  <Non-H Atoms>
18

>  <sp3-Atoms>
1

$$$$
MAZWTJAWJKKDKQ-BUKGPZPNNA-N
Actelion Java MolfileCreator 2.0

  0  0  0  0  0  0              0 V3000
M  V30 BEGIN CTAB
M  V30 COUNTS 43 45 0 0 0
M  V30 BEGIN ATOM
M  V30 1 S 33.1411 10.5339 64.8069 0
M  V30 2 O 34.3415 9.9672 63.933 0
M  V30 3 O 33.6655 11.1187 66.2142 0
M  V30 4 N 32.4008 11.6481 63.9834 0
M  V30 5 C 32.1686 9.284 65.0573 0
M  V30 6 C 31.0895 8.9929 64.1032 0
M  V30 7 C 32.3763 8.4286 66.2359 0
M  V30 8 C 30.2582 7.8733 64.3322 0
M  V30 9 C 31.5442 7.2985 66.4772 0
M  V30 10 C 30.4623 6.9757 65.539 0
M  V30 11 N 29.7046 5.866 65.8199 0
M  V30 12 C 28.6447 5.3422 65.1114 0
M  V30 13 S 27.6008 6.2005 64.0192 0
M  V30 14 N 28.3524 4.051 65.2472 0
M  V30 15 C 26.7533 4.7382 63.7492 0
M  V30 16 C 27.2909 3.7016 64.4886 0
M  V30 17 C 25.5673 4.6346 62.8079 0
M  V30 18 N 26.8204 2.4347 64.4667 0
M  V30 19 O 24.9552 3.4389 62.6774 0
M  V30 20 C 25.1003 5.836 62.0337 0
M  V30 21 C 23.6824 6.2814 62.0135 0
M  V30 22 C 26.1037 6.6043 61.2541 0
M  V30 23 C 23.3054 7.4683 61.2377 0
M  V30 24 C 25.7472 7.7726 60.4896 0
M  V30 25 C 24.3301 8.2272 60.473 0
M  V30 26 O 23.9829 9.3613 59.7407 0
M  V30 27 C 24.8301 10.1254 59.0139 0
M  V30 28 H 32.5128 11.4706 63.0061 0
M  V30 29 H 32.79 12.542 64.2063 0
M  V30 30 H 30.9343 9.6243 63.241 0
M  V30 31 H 33.1716 8.6612 66.9284 0
M  V30 32 H 29.4627 7.6526 63.6359 0
M  V30 33 H 31.7083 6.681 67.3479 0
M  V30 34 H 30.2386 5.1544 66.2757 0
M  V30 35 H 27.3722 1.8632 65.0739 0
M  V30 36 H 26.0361 2.3807 63.8487 0
M  V30 37 H 22.9334 5.7345 62.567 0
M  V30 38 H 27.1329 6.2776 61.2604 0
M  V30 39 H 22.2753 7.7932 61.222 0
M  V30 40 H 26.4999 8.3126 59.9349 0
M  V30 41 H 24.2716 10.9504 58.547 0
M  V30 42 H 25.6091 10.5368 59.6725 0
M  V30 43 H 25.298 9.5105 58.2314 0
M  V30 END ATOM
M  V30 BEGIN BOND
M  V30 1 2 1 2
M  V30 2 2 1 3
M  V30 3 1 1 4
M  V30 4 1 1 5
M  V30 5 2 5 6
M  V30 6 1 5 7
M  V30 7 1 6 8
M  V30 8 2 7 9
M  V30 9 2 8 10
M  V30 10 1 10 11
M  V30 11 1 11 12
M  V30 12 1 12 13
M  V30 13 2 12 14
M  V30 14 1 13 15
M  V30 15 1 14 16
M  V30 16 1 15 17
M  V30 17 1 16 18
M  V30 18 2 17 19
M  V30 19 1 17 20
M  V30 20 2 20 21
M  V30 21 1 20 22
M  V30 22 1 21 23
M  V30 23 2 22 24
M  V30 24 2 23 25
M  V30 25 1 25 26
M  V30 26 1 26 27
M  V30 27 1 9 10
M  V30 28 2 15 16
M  V30 29 1 24 25
M  V30 30 1 4 28
M  V30 31 1 4 29
M  V30 32 1 6 30
M  V30 33 1 7 31
M  V30 34 1 8 32
M  V30 35 1 9 33
M  V30 36 1 11 34
M  V30 37 1 18 35
M  V30 38 1 18 36
M  V30 39 1 21 37
M  V30 40 1 22 38
M  V30 41 1 23 39
M  V30 42 1 24 40
M  V30 43 1 27 41
M  V30 44 1 27 42
M  V30 45 1 27 43
M  V30 END BOND
M  V30 END CTAB
M  END
>  <Molecule Name>
MAZWTJAWJKKDKQ-BUKGPZPNNA-N

>  <hs_clash>
1.0

>  <hs_total>
110.928909045587

>  <Total Molweight>
404.470

>  <cLogP>
2.3956

>  <H-Acceptors>
8

>  <H-Donors>
3

>  <Polar Surface Area>
174.02

>  <Non-H Atoms>
27

>  <sp3-Atoms>
3

$$$$
SVPUOZWGAJVQMQ-TYLXSBIINA-N
Actelion Java MolfileCreator 2.0

  0  0  0  0  0  0              0 V3000
M  V30 BEGIN CTAB
M  V30 COUNTS 41 43 0 0 0
M  V30 BEGIN ATOM
M  V30 1 O 29.3265 7.9236 63.8795 0
M  V30 2 C 30.1181 7.3284 64.6044 0
M  V30 3 N 29.8737 6.1774 65.2617 0
M  V30 4 C 31.5287 7.8118 64.8372 0
M  V30 5 C 28.662 5.3939 64.9897 0
M  V30 6 C 31.5068 8.7763 65.9802 0
M  V30 7 N 28.5341 4.1165 65.422 0
M  V30 8 C 27.4891 5.7403 64.2858 0
M  V30 9 C 31.3118 10.1238 65.7495 0
M  V30 10 C 31.6885 8.3283 67.2927 0
M  V30 11 C 27.3472 3.6879 65.007 0
M  V30 12 N 26.695 4.6504 64.3303 0
M  V30 13 C 31.3109 11.0512 66.775 0
M  V30 14 C 31.6887 9.264 68.3152 0
M  V30 15 C 25.3963 4.3766 63.7918 0 CFG=2
M  V30 16 C 31.4678 10.6187 68.0805 0
M  V30 17 C 24.3797 5.5452 63.7279 0
M  V30 18 C 25.3843 4.42 62.2151 0
M  V30 19 O 31.4384 11.5982 69.0844 0
M  V30 20 C 23.9345 4.9895 62.3556 0 CFG=1
M  V30 21 C 32.6177 11.5285 69.8916 0
M  V30 22 O 23.6975 5.9423 61.3174 0
M  V30 23 H 30.5274 5.8521 65.9449 0
M  V30 24 H 32.1795 6.9595 65.0811 0
M  V30 25 H 31.9046 8.3136 63.9333 0
M  V30 26 H 27.2713 6.6848 63.8092 0
M  V30 27 H 31.155 10.4639 64.7366 0
M  V30 28 H 31.8254 7.2785 67.5047 0
M  V30 29 H 26.9572 2.6974 65.1888 0
M  V30 30 H 31.1889 12.1027 66.5599 0
M  V30 31 H 31.8658 8.9314 69.3275 0
M  V30 32 H 24.9392 3.4527 64.1756 0
M  V30 33 H 23.6032 5.5216 64.5069 0
M  V30 34 H 24.8331 6.5468 63.6929 0
M  V30 35 H 26.113 5.1093 61.7635 0
M  V30 36 H 25.453 3.4392 61.7226 0
M  V30 37 H 23.175 4.1982 62.4401 0
M  V30 38 H 32.5755 12.3034 70.6715 0
M  V30 39 H 32.6807 10.537 70.3634 0
M  V30 40 H 33.5038 11.6914 69.2608 0
M  V30 41 H 23.3187 5.5036 60.5649 0
M  V30 END ATOM
M  V30 BEGIN BOND
M  V30 1 2 1 2
M  V30 2 1 2 3
M  V30 3 1 2 4
M  V30 4 1 3 5
M  V30 5 1 4 6
M  V30 6 1 5 7
M  V30 7 2 5 8
M  V30 8 2 6 9
M  V30 9 1 6 10
M  V30 10 2 7 11
M  V30 11 1 8 12
M  V30 12 1 9 13
M  V30 13 2 10 14
M  V30 14 1 12 15
M  V30 15 2 13 16
M  V30 16 1 15 17
M  V30 17 1 15 18
M  V30 18 1 16 19
M  V30 19 1 17 20
M  V30 20 1 19 21
M  V30 21 1 20 22
M  V30 22 1 11 12
M  V30 23 1 14 16
M  V30 24 1 18 20
M  V30 25 1 3 23
M  V30 26 1 4 24
M  V30 27 1 4 25
M  V30 28 1 8 26
M  V30 29 1 9 27
M  V30 30 1 10 28
M  V30 31 1 11 29
M  V30 32 1 13 30
M  V30 33 1 14 31
M  V30 34 1 15 32
M  V30 35 1 17 33
M  V30 36 1 17 34
M  V30 37 1 18 35
M  V30 38 1 18 36
M  V30 39 1 20 37
M  V30 40 1 21 38
M  V30 41 1 21 39
M  V30 42 1 21 40
M  V30 43 1 22 41
M  V30 END BOND
M  V30 BEGIN COLLECTION
M  V30 MDLV30/STEABS ATOMS=(2 15 20)
M  V30 END COLLECTION
M  V30 END CTAB
M  END
>  <Molecule Name>
SVPUOZWGAJVQMQ-TYLXSBIINA-N

>  <hs_clash>
0.0

>  <hs_total>
110.7782250568557

>  <Total Molweight>
301.345

>  <cLogP>
1.6873

>  <H-Acceptors>
6

>  <H-Donors>
2

>  <Polar Surface Area>
76.38

>  <Non-H Atoms>
22

>  <sp3-Atoms>
8

$$$$
WGWGFHMTAVZKKS-BUKGPZPNNA-N
Actelion Java MolfileCreator 2.0

  0  0  0  0  0  0              0 V3000
M  V30 BEGIN CTAB
M  V30 COUNTS 43 45 0 0 0
M  V30 BEGIN ATOM
M  V30 1 S 33.152 10.5701 64.7488 0
M  V30 2 O 34.3625 10.0029 63.8511 0
M  V30 3 O 33.7033 11.1556 66.1711 0
M  V30 4 N 32.4141 11.686 63.9525 0
M  V30 5 C 32.1588 9.3434 65.0275 0
M  V30 6 C 31.1052 9.0406 64.0847 0
M  V30 7 C 32.3265 8.5282 66.2255 0
M  V30 8 C 30.2459 7.948 64.3304 0
M  V30 9 C 31.4653 7.426 66.4767 0
M  V30 10 C 30.4035 7.099 65.5384 0
M  V30 11 N 29.6059 6.0087 65.8315 0
M  V30 12 C 28.5506 5.4866 65.1261 0
M  V30 13 S 27.5526 6.316 63.9831 0
M  V30 14 N 28.2227 4.2031 65.3144 0
M  V30 15 C 26.6714 4.8708 63.7647 0
M  V30 16 C 27.1631 3.8489 64.5537 0
M  V30 17 C 25.5149 4.7747 62.819 0
M  V30 18 N 26.659 2.6003 64.5753 0
M  V30 19 O 24.8513 3.6014 62.7123 0
M  V30 20 C 25.1229 5.9651 62.0006 0
M  V30 21 C 23.7863 6.5483 62.0873 0
M  V30 22 C 26.1075 6.5682 61.0965 0
M  V30 23 C 23.4496 7.7021 61.2944 0
M  V30 24 C 25.7858 7.7149 60.3006 0
M  V30 25 O 22.1614 8.2391 61.4107 0
M  V30 26 C 24.4414 8.2945 60.3985 0
M  V30 27 C 21.7341 9.308 60.7359 0
M  V30 28 H 31.4508 11.7062 64.2204 0
M  V30 29 H 32.4835 11.4986 62.973 0
M  V30 30 H 30.9765 9.6456 63.1993 0
M  V30 31 H 33.1117 8.7647 66.9282 0
M  V30 32 H 29.4581 7.7252 63.6261 0
M  V30 33 H 31.5996 6.8294 67.3668 0
M  V30 34 H 30.1147 5.2978 66.3168 0
M  V30 35 H 27.1848 2.0393 65.2143 0
M  V30 36 H 25.8833 2.5428 63.9468 0
M  V30 37 H 23.0496 6.1139 62.7469 0
M  V30 38 H 27.0961 6.1387 61.0296 0
M  V30 39 H 26.5217 8.1465 59.6387 0
M  V30 40 H 24.1838 9.1607 59.8071 0
M  V30 41 H 20.6897 9.5208 61.0082 0
M  V30 42 H 22.3622 10.1753 60.9871 0
M  V30 43 H 21.7981 9.1093 59.656 0
M  V30 END ATOM
M  V30 BEGIN BOND
M  V30 1 2 1 2
M  V30 2 2 1 3
M  V30 3 1 1 4
M  V30 4 1 1 5
M  V30 5 2 5 6
M  V30 6 1 5 7
M  V30 7 1 6 8
M  V30 8 2 7 9
M  V30 9 2 8 10
M  V30 10 1 10 11
M  V30 11 1 11 12
M  V30 12 1 12 13
M  V30 13 2 12 14
M  V30 14 1 13 15
M  V30 15 1 14 16
M  V30 16 1 15 17
M  V30 17 1 16 18
M  V30 18 2 17 19
M  V30 19 1 17 20
M  V30 20 2 20 21
M  V30 21 1 20 22
M  V30 22 1 21 23
M  V30 23 2 22 24
M  V30 24 1 23 25
M  V30 25 2 23 26
M  V30 26 1 25 27
M  V30 27 1 9 10
M  V30 28 2 15 16
M  V30 29 1 24 26
M  V30 30 1 4 28
M  V30 31 1 4 29
M  V30 32 1 6 30
M  V30 33 1 7 31
M  V30 34 1 8 32
M  V30 35 1 9 33
M  V30 36 1 11 34
M  V30 37 1 18 35
M  V30 38 1 18 36
M  V30 39 1 21 37
M  V30 40 1 22 38
M  V30 41 1 24 39
M  V30 42 1 26 40
M  V30 43 1 27 41
M  V30 44 1 27 42
M  V30 45 1 27 43
M  V30 END BOND
M  V30 END CTAB
M  END
>  <Molecule Name>
WGWGFHMTAVZKKS-BUKGPZPNNA-N

>  <hs_clash>
1.0

>  <hs_total>
110.20647302876142

>  <Total Molweight>
404.470

>  <cLogP>
2.3956

>  <H-Acceptors>
8

>  <H-Donors>
3

>  <Polar Surface Area>
174.02

>  <Non-H Atoms>
27

>  <sp3-Atoms>
3

$$$$
GPGNHDACAOAHAF-IUZKZMDSNA-M
Actelion Java MolfileCreator 2.0

  0  0  0  0  0  0              0 V3000
M  V30 BEGIN CTAB
M  V30 COUNTS 50 53 0 0 0
M  V30 BEGIN ATOM
M  V30 1 O 32.5116 10.9635 63.5543 0
M  V30 2 C 31.8883 11.3161 64.5934 0
M  V30 3 O 31.6373 12.5502 64.7824 0 CHG=-1
M  V30 4 C 31.4164 10.3125 65.477 0
M  V30 5 C 30.4195 9.4138 65.0359 0
M  V30 6 C 31.9765 10.1978 66.7618 0
M  V30 7 C 29.9373 8.3925 65.9252 0
M  V30 8 C 29.8743 9.5439 63.7123 0
M  V30 9 C 31.4937 9.1928 67.6295 0
M  V30 10 C 28.9791 7.5002 65.5562 0
M  V30 11 C 30.5035 8.291 67.2007 0
M  V30 12 N 27.8593 7.7152 64.85 0
M  V30 13 N 29.0364 6.1749 65.8388 0
M  V30 14 C 27.2284 6.5026 64.742 0
M  V30 15 C 27.9545 5.5524 65.3838 0
M  V30 16 C 26.0699 6.1182 64.1472 0
M  V30 17 N 27.5965 4.2479 65.4038 0
M  V30 18 O 25.3311 7.1225 63.5702 0
M  V30 19 N 25.6795 4.8132 64.1373 0
M  V30 20 C 26.4635 3.8863 64.7712 0
M  V30 21 C 24.2978 6.6948 62.6365 0
M  V30 22 N 26.0506 2.6304 64.7915 0
M  V30 23 C 24.5387 7.7098 61.597 0
M  V30 24 C 25.3841 7.162 60.4273 0
M  V30 25 C 23.2288 8.2729 61.0657 0
M  V30 26 C 25.8956 8.3474 59.6794 0
M  V30 27 C 23.6909 9.6241 60.335 0
M  V30 28 C 24.7241 9.2811 59.2143 0
M  V30 29 H 32.7621 10.867 67.0802 0
M  V30 30 H 28.7944 9.7436 63.7782 0
M  V30 31 H 30.3698 10.3769 63.1922 0
M  V30 32 H 30.0413 8.6114 63.1541 0
M  V30 33 H 31.8888 9.1164 68.6318 0
M  V30 34 H 30.1748 7.5068 67.8668 0
M  V30 35 H 29.7889 5.7282 66.3228 0
M  V30 36 H 23.2882 6.7694 63.0673 0
M  V30 37 H 24.4646 5.6718 62.2685 0
M  V30 38 H 25.1772 2.5582 64.3098 0
M  V30 39 H 26.7154 2.0686 65.2837 0
M  V30 40 H 25.1005 8.5405 62.0491 0
M  V30 41 H 24.7617 6.5377 59.7692 0
M  V30 42 H 26.2237 6.5652 60.8128 0
M  V30 43 H 22.5276 8.4865 61.8861 0
M  V30 44 H 22.7592 7.5785 60.3536 0
M  V30 45 H 26.5705 8.9192 60.3338 0
M  V30 46 H 26.4494 8.0004 58.7946 0
M  V30 47 H 24.1563 10.2981 61.0698 0
M  V30 48 H 22.815 10.1179 59.8882 0
M  V30 49 H 25.1588 10.2224 58.8472 0
M  V30 50 H 24.1888 8.7799 58.3946 0
M  V30 END ATOM
M  V30 BEGIN BOND
M  V30 1 2 1 2
M  V30 2 1 2 3
M  V30 3 1 2 4
M  V30 4 2 4 5
M  V30 5 1 4 6
M  V30 6 1 5 7
M  V30 7 1 5 8
M  V30 8 2 6 9
M  V30 9 1 7 10
M  V30 10 2 7 11
M  V30 11 2 10 12
M  V30 12 1 10 13
M  V30 13 1 12 14
M  V30 14 1 13 15
M  V30 15 1 14 16
M  V30 16 1 15 17
M  V30 17 1 16 18
M  V30 18 2 16 19
M  V30 19 2 17 20
M  V30 20 1 18 21
M  V30 21 1 20 22
M  V30 22 1 21 23
M  V30 23 1 23 24
M  V30 24 1 23 25
M  V30 25 1 24 26
M  V30 26 1 25 27
M  V30 27 1 26 28
M  V30 28 1 9 11
M  V30 29 2 14 15
M  V30 30 1 19 20
M  V30 31 1 27 28
M  V30 32 1 6 29
M  V30 33 1 8 30
M  V30 34 1 8 31
M  V30 35 1 8 32
M  V30 36 1 9 33
M  V30 37 1 11 34
M  V30 38 1 13 35
M  V30 39 1 21 36
M  V30 40 1 21 37
M  V30 41 1 22 38
M  V30 42 1 22 39
M  V30 43 1 23 40
M  V30 44 1 24 41
M  V30 45 1 24 42
M  V30 46 1 25 43
M  V30 47 1 25 44
M  V30 48 1 26 45
M  V30 49 1 26 46
M  V30 50 1 27 47
M  V30 51 1 27 48
M  V30 52 1 28 49
M  V30 53 1 28 50
M  V30 END BOND
M  V30 END CTAB
M  END
>  <Molecule Name>
GPGNHDACAOAHAF-IUZKZMDSNA-M

>  <hs_clash>
1.0

>  <hs_total>
109.95463175766645

>  <Total Molweight>
380.427

>  <cLogP>
0.9285

>  <H-Acceptors>
8

>  <H-Donors>
2

>  <Polar Surface Area>
129.84

>  <Non-H Atoms>
28

>  <sp3-Atoms>
10

$$$$
WRCCTRXGCPABER-AEEMIJIINA-N
Actelion Java MolfileCreator 2.0

  0  0  0  0  0  0              0 V3000
M  V30 BEGIN CTAB
M  V30 COUNTS 34 35 0 0 0
M  V30 BEGIN ATOM
M  V30 1 O 28.7239 8.0201 64.8243 0
M  V30 2 C 29.0092 6.8021 65.3301 0
M  V30 3 N 30.0268 6.64 66.2238 0
M  V30 4 C 28.2082 5.6265 64.9015 0
M  V30 5 N 30.8322 7.7588 66.4828 0
M  V30 6 N 28.4373 4.3655 65.3616 0
M  V30 7 C 27.1371 5.5913 63.9985 0
M  V30 8 N 27.5676 3.542 64.7876 0
M  V30 9 C 26.7643 4.2432 63.956 0
M  V30 10 C 26.4411 6.6838 63.1804 0
M  V30 11 C 25.73 3.7055 63.1733 0
M  V30 12 C 25.6159 6.0452 62.0028 0 CFG=2
M  V30 13 C 24.8059 4.7937 62.5066 0
M  V30 14 C 24.6515 7.1015 61.3655 0
M  V30 15 C 25.3843 8.1954 60.5725 0
M  V30 16 C 25.9296 7.6332 59.2737 0
M  V30 17 H 30.191 5.7624 66.6744 0
M  V30 18 H 31.5372 7.5154 67.149 0
M  V30 19 H 31.2659 8.0609 65.634 0
M  V30 20 H 27.5152 2.5565 64.9459 0
M  V30 21 H 27.1991 7.364 62.7648 0
M  V30 22 H 25.7607 7.2491 63.8347 0
M  V30 23 H 26.1797 3.0963 62.3756 0
M  V30 24 H 25.1056 3.0664 63.8151 0
M  V30 25 H 26.3224 5.7103 61.2294 0
M  V30 26 H 24.2887 4.3397 61.6485 0
M  V30 27 H 24.0637 5.1281 63.2467 0
M  V30 28 H 23.9626 6.5792 60.6849 0
M  V30 29 H 24.0766 7.5809 62.1717 0
M  V30 30 H 24.682 9.0117 60.3473 0
M  V30 31 H 26.2169 8.5844 61.1771 0
M  V30 32 H 26.4504 8.428 58.7198 0
M  V30 33 H 26.6344 6.8181 59.4948 0
M  V30 34 H 25.0995 7.2454 58.6652 0
M  V30 END ATOM
M  V30 BEGIN BOND
M  V30 1 2 1 2
M  V30 2 1 2 3
M  V30 3 1 2 4
M  V30 4 1 3 5
M  V30 5 2 4 6
M  V30 6 1 4 7
M  V30 7 1 6 8
M  V30 8 2 7 9
M  V30 9 1 7 10
M  V30 10 1 9 11
M  V30 11 1 10 12
M  V30 12 1 11 13
M  V30 13 1 12 14
M  V30 14 1 14 15
M  V30 15 1 15 16
M  V30 16 1 8 9
M  V30 17 1 12 13
M  V30 18 1 3 17
M  V30 19 1 5 18
M  V30 20 1 5 19
M  V30 21 1 8 20
M  V30 22 1 10 21
M  V30 23 1 10 22
M  V30 24 1 11 23
M  V30 25 1 11 24
M  V30 26 1 12 25
M  V30 27 1 13 26
M  V30 28 1 13 27
M  V30 29 1 14 28
M  V30 30 1 14 29
M  V30 31 1 15 30
M  V30 32 1 15 31
M  V30 33 1 16 32
M  V30 34 1 16 33
M  V30 35 1 16 34
M  V30 END BOND
M  V30 BEGIN COLLECTION
M  V30 MDLV30/STERAC1 ATOMS=(1 12)
M  V30 END COLLECTION
M  V30 END CTAB
M  END
>  <Molecule Name>
WRCCTRXGCPABER-AEEMIJIINA-N

>  <hs_clash>
0.0

>  <hs_total>
109.94491920852266

>  <Total Molweight>
222.291

>  <cLogP>
0.3193

>  <H-Acceptors>
5

>  <H-Donors>
3

>  <Polar Surface Area>
83.8

>  <Non-H Atoms>
16

>  <sp3-Atoms>
8

$$$$
AIINAKYQKGXDFN-CMJYGJQNNA-N
Actelion Java MolfileCreator 2.0

  0  0  0  0  0  0              0 V3000
M  V30 BEGIN CTAB
M  V30 COUNTS 44 46 0 0 0
M  V30 BEGIN ATOM
M  V30 1 S 33.3017 10.5908 64.7895 0
M  V30 2 O 34.4038 10.0754 64.019 0
M  V30 3 O 33.7837 11.121 66.0487 0
M  V30 4 N 32.5298 11.7775 63.8842 0
M  V30 5 C 32.2204 9.2439 65.0965 0
M  V30 6 C 32.384 8.4617 66.2743 0
M  V30 7 C 31.2116 8.9362 64.1636 0
M  V30 8 C 31.5269 7.3653 66.5043 0
M  V30 9 C 30.3565 7.8488 64.3873 0
M  V30 10 C 30.5018 7.0414 65.5611 0
M  V30 11 N 29.7564 6.02 65.8282 0
M  V30 12 C 28.8129 5.4723 65.1246 0
M  V30 13 S 27.7403 6.3063 64.0395 0
M  V30 14 N 28.6125 4.1898 65.2239 0
M  V30 15 C 26.9522 4.8183 63.6843 0
M  V30 16 C 27.5627 3.8047 64.4208 0
M  V30 17 C 25.8815 4.6492 62.7997 0
M  V30 18 N 27.1856 2.5882 64.3611 0
M  V30 19 O 25.3578 3.5545 62.687 0
M  V30 20 C 25.4133 5.6926 62.0254 0
M  V30 21 C 24.0138 5.9767 61.9957 0
M  V30 22 C 26.311 6.4958 61.2487 0
M  V30 23 C 23.5295 7.0428 61.207 0
M  V30 24 C 25.8177 7.568 60.4609 0
M  V30 25 C 24.4283 7.8362 60.4445 0
M  V30 26 S 23.7932 9.1814 59.4519 0
M  V30 27 O 22.5173 9.5837 60.0103 0
M  V30 28 O 24.7289 10.2782 59.4631 0
M  V30 29 N 23.5647 8.6328 57.8684 0
M  V30 30 H 31.5591 11.8023 64.1248 0
M  V30 31 H 32.6262 11.5703 62.9109 0
M  V30 32 H 33.1585 8.7057 66.9866 0
M  V30 33 H 31.0968 9.5392 63.2748 0
M  V30 34 H 31.6448 6.7681 67.3966 0
M  V30 35 H 29.5826 7.6184 63.6701 0
M  V30 36 H 30.2452 5.3423 66.3778 0
M  V30 37 H 26.2315 2.5196 64.6532 0
M  V30 38 H 27.7586 2.0314 64.9624 0
M  V30 39 H 23.3272 5.377 62.5752 0
M  V30 40 H 27.3697 6.2834 61.2631 0
M  V30 41 H 22.4708 7.2568 61.1835 0
M  V30 42 H 26.4964 8.1742 59.8795 0
M  V30 43 H 22.9148 7.8729 57.8689 0
M  V30 44 H 24.3992 8.7849 57.339 0
M  V30 END ATOM
M  V30 BEGIN BOND
M  V30 1 2 1 2
M  V30 2 2 1 3
M  V30 3 1 1 4
M  V30 4 1 1 5
M  V30 5 2 5 6
M  V30 6 1 5 7
M  V30 7 1 6 8
M  V30 8 2 7 9
M  V30 9 2 8 10
M  V30 10 1 10 11
M  V30 11 1 11 12
M  V30 12 1 12 13
M  V30 13 2 12 14
M  V30 14 1 13 15
M  V30 15 1 14 16
M  V30 16 1 15 17
M  V30 17 1 16 18
M  V30 18 2 17 19
M  V30 19 1 17 20
M  V30 20 2 20 21
M  V30 21 1 20 22
M  V30 22 1 21 23
M  V30 23 2 22 24
M  V30 24 2 23 25
M  V30 25 1 25 26
M  V30 26 2 26 27
M  V30 27 2 26 28
M  V30 28 1 26 29
M  V30 29 1 9 10
M  V30 30 2 15 16
M  V30 31 1 24 25
M  V30 32 1 4 30
M  V30 33 1 4 31
M  V30 34 1 6 32
M  V30 35 1 7 33
M  V30 36 1 8 34
M  V30 37 1 9 35
M  V30 38 1 11 36
M  V30 39 1 18 37
M  V30 40 1 18 38
M  V30 41 1 21 39
M  V30 42 1 22 40
M  V30 43 1 23 41
M  V30 44 1 24 42
M  V30 45 1 29 43
M  V30 46 1 29 44
M  V30 END BOND
M  V30 END CTAB
M  END
>  <Molecule Name>
AIINAKYQKGXDFN-CMJYGJQNNA-N

>  <hs_clash>
3.0

>  <hs_total>
109.40471380402934

>  <Total Molweight>
453.523

>  <cLogP>
1.2296

>  <H-Acceptors>
10

>  <H-Donors>
4

>  <Polar Surface Area>
233.33

>  <Non-H Atoms>
29

>  <sp3-Atoms>
2

$$$$
AITZHKQVQNLKHI-JBOYWEQONA-P
Actelion Java MolfileCreator 2.0

  0  0  0  0  0  0              0 V3000
M  V30 BEGIN CTAB
M  V30 COUNTS 64 68 0 0 0
M  V30 BEGIN ATOM
M  V30 1 O 27.1413 8.3774 63.367 0
M  V30 2 C 27.159 7.2009 63.7111 0
M  V30 3 C 26.1766 6.1809 63.3861 0
M  V30 4 C 28.1385 6.5346 64.5455 0
M  V30 5 C 25.0094 6.2296 62.4875 0
M  V30 6 C 26.5307 4.9094 64.0275 0
M  V30 7 C 27.7537 5.1603 64.7597 0
M  V30 8 C 29.403 6.7544 65.2179 0
M  V30 9 N 24.8148 7.4987 61.8857 0
M  V30 10 C 24.193 5.0248 62.2268 0
M  V30 11 C 25.7303 3.7052 63.7767 0
M  V30 12 N 28.699 4.4629 65.5433 0
M  V30 13 N 29.7418 5.5271 65.8304 0
M  V30 14 C 30.2355 8.0194 65.3216 0
M  V30 15 C 23.8578 7.8639 61.0317 0
M  V30 16 C 24.5641 3.7557 62.8751 0
M  V30 17 C 31.3603 8.0111 66.3612 0
M  V30 18 C 30.6549 8.6782 64.0058 0
M  V30 19 O 23.0307 7.0415 60.6414 0
M  V30 20 C 23.7975 9.3198 60.5975 0
M  V30 21 C 32.0098 9.3809 66.5491 0
M  V30 22 C 31.3148 10.0476 64.2084 0
M  V30 23 N 25.0532 10.0476 60.8377 0 CHG=1 CFG=1
M  V30 24 C 32.4762 9.9478 65.2109 0
M  V30 25 C 25.2117 10.9891 61.9673 0
M  V30 26 C 26.3049 9.6423 60.1673 0
M  V30 27 C 26.0342 12.2106 61.5582 0
M  V30 28 C 27.1206 10.8657 59.7583 0
M  V30 29 C 27.3726 11.8561 60.9021 0 CFG=2
M  V30 30 C 28.3249 11.2348 61.9316 0
M  V30 31 N 29.648 10.9133 61.3568 0 CHG=1
M  V30 32 H 25.4764 8.207 62.1319 0
M  V30 33 H 23.3367 5.0747 61.5707 0
M  V30 34 H 25.9974 2.7749 64.2559 0
M  V30 35 H 30.5627 5.3789 66.3819 0
M  V30 36 H 29.5242 8.7466 65.7408 0
M  V30 37 H 23.9836 2.864 62.6905 0
M  V30 38 H 30.9437 7.6858 67.3259 0
M  V30 39 H 32.1325 7.2987 66.0362 0
M  V30 40 H 31.3691 8.0167 63.4939 0
M  V30 41 H 29.761 8.8089 63.3779 0
M  V30 42 H 22.9917 9.8187 61.1566 0
M  V30 43 H 23.573 9.3549 59.5214 0
M  V30 44 H 31.2775 10.0692 66.9968 0
M  V30 45 H 32.8758 9.2804 67.2199 0
M  V30 46 H 30.5659 10.756 64.5929 0
M  V30 47 H 31.7002 10.409 63.2439 0
M  V30 48 H 24.8468 10.7669 60.1744 0
M  V30 49 H 32.8952 10.9516 65.374 0
M  V30 50 H 33.2524 9.2894 64.7945 0
M  V30 51 H 25.7212 10.4741 62.7949 0
M  V30 52 H 24.217 11.3217 62.2996 0
M  V30 53 H 26.9002 9.026 60.8571 0
M  V30 54 H 26.0597 9.0558 59.2699 0
M  V30 55 H 26.236 12.8114 62.4576 0
M  V30 56 H 25.4438 12.805 60.8454 0
M  V30 57 H 26.5786 11.3916 58.9584 0
M  V30 58 H 28.0934 10.5217 59.3775 0
M  V30 59 H 27.8284 12.7703 60.4943 0
M  V30 60 H 27.8728 10.3087 62.3167 0
M  V30 61 H 28.4631 11.9467 62.7591 0
M  V30 62 H 30.3473 10.9861 62.0679 0
M  V30 63 H 29.6362 9.9813 60.995 0
M  V30 64 H 29.8552 11.5551 60.6186 0
M  V30 END ATOM
M  V30 BEGIN BOND
M  V30 1 2 1 2
M  V30 2 1 2 3
M  V30 3 1 2 4
M  V30 4 2 3 5
M  V30 5 1 3 6
M  V30 6 1 4 7
M  V30 7 2 4 8
M  V30 8 1 5 9
M  V30 9 1 5 10
M  V30 10 2 6 11
M  V30 11 2 7 12
M  V30 12 1 8 13
M  V30 13 1 8 14
M  V30 14 1 9 15
M  V30 15 2 10 16
M  V30 16 1 14 17
M  V30 17 1 14 18
M  V30 18 2 15 19
M  V30 19 1 15 20
M  V30 20 1 17 21
M  V30 21 1 18 22
M  V30 22 1 20 23
M  V30 23 1 21 24
M  V30 24 1 23 25
M  V30 25 1 23 26
M  V30 26 1 25 27
M  V30 27 1 26 28
M  V30 28 1 27 29
M  V30 29 1 29 30
M  V30 30 1 30 31
M  V30 31 1 6 7
M  V30 32 1 11 16
M  V30 33 1 12 13
M  V30 34 1 22 24
M  V30 35 1 28 29
M  V30 36 1 9 32
M  V30 37 1 10 33
M  V30 38 1 11 34
M  V30 39 1 13 35
M  V30 40 1 14 36
M  V30 41 1 16 37
M  V30 42 1 17 38
M  V30 43 1 17 39
M  V30 44 1 18 40
M  V30 45 1 18 41
M  V30 46 1 20 42
M  V30 47 1 20 43
M  V30 48 1 21 44
M  V30 49 1 21 45
M  V30 50 1 22 46
M  V30 51 1 22 47
M  V30 52 1 23 48
M  V30 53 1 24 49
M  V30 54 1 24 50
M  V30 55 1 25 51
M  V30 56 1 25 52
M  V30 57 1 26 53
M  V30 58 1 26 54
M  V30 59 1 27 55
M  V30 60 1 27 56
M  V30 61 1 28 57
M  V30 62 1 28 58
M  V30 63 1 29 59
M  V30 64 1 30 60
M  V30 65 1 30 61
M  V30 66 1 31 62
M  V30 67 1 31 63
M  V30 68 1 31 64
M  V30 END BOND
M  V30 BEGIN COLLECTION
M  V30 MDLV30/STEABS ATOMS=(2 23 29)
M  V30 END COLLECTION
M  V30 END CTAB
M  END
>  <Molecule Name>
AITZHKQVQNLKHI-JBOYWEQONA-P

>  <hs_clash>
0.0

>  <hs_total>
109.24259847275464

>  <Total Molweight>
423.559

>  <cLogP>
-2.8542

>  <H-Acceptors>
7

>  <H-Donors>
4

>  <Polar Surface Area>
106.93

>  <Non-H Atoms>
31

>  <sp3-Atoms>
15

$$$$
LVRKQJAEQWVSCM-HISFQJFRNA-O
Actelion Java MolfileCreator 2.0

  0  0  0  0  0  0              0 V3000
M  V30 BEGIN CTAB
M  V30 COUNTS 51 54 0 0 0
M  V30 BEGIN ATOM
M  V30 1 S 33.7124 11.0618 64.8672 0
M  V30 2 O 34.3084 11.2546 66.1004 0
M  V30 3 O 34.6142 10.5903 63.9423 0
M  V30 4 N 33.011 12.349 64.3766 0
M  V30 5 C 32.4743 9.8148 65.0761 0
M  V30 6 C 32.1595 9.3635 66.3542 0
M  V30 7 C 31.8397 9.2596 63.9572 0
M  V30 8 C 31.2091 8.3784 66.5312 0
M  V30 9 C 30.8883 8.2585 64.1293 0
M  V30 10 C 30.5574 7.8266 65.4243 0
M  V30 11 N 29.65 6.8253 65.6094 0
M  V30 12 C 28.5502 6.7288 64.8376 0
M  V30 13 N 27.9447 5.5538 64.6815 0
M  V30 14 C 28.0249 7.8506 64.2116 0
M  V30 15 N 28.2654 4.3823 65.1864 0
M  V30 16 C 26.8637 5.4307 63.9391 0
M  V30 17 C 26.9097 7.7089 63.4064 0
M  V30 18 C 27.3466 3.4812 64.7313 0
M  V30 19 N 26.3181 6.4873 63.2988 0
M  V30 20 N 26.4675 4.1542 63.948 0
M  V30 21 N 26.3322 8.797 62.8597 0
M  V30 22 C 26.44 9.0982 61.4484 0 CFG=1
M  V30 23 C 25.7039 10.4261 61.2794 0
M  V30 24 C 25.6618 7.9884 60.7436 0
M  V30 25 C 25.5798 10.7531 59.7958 0
M  V30 26 C 25.5307 8.3224 59.259 0
M  V30 27 C 24.7945 9.6504 59.0978 0 CFG=1
M  V30 28 N 24.6614 9.9711 57.6674 0 CHG=1
M  V30 29 H 33.0238 12.376 63.377 0
M  V30 30 H 33.1293 13.0736 65.0559 0
M  V30 31 H 32.6609 9.7864 67.2124 0
M  V30 32 H 32.0875 9.6076 62.9654 0
M  V30 33 H 30.9684 8.0335 67.5261 0
M  V30 34 H 30.4061 7.8155 63.2704 0
M  V30 35 H 29.9289 6.0246 66.1397 0
M  V30 36 H 28.4803 8.8201 64.3514 0
M  V30 37 H 27.3238 2.4247 64.9545 0
M  V30 38 H 26.0451 9.5322 63.474 0
M  V30 39 H 27.4802 9.1577 61.0964 0
M  V30 40 H 24.7002 10.3484 61.723 0
M  V30 41 H 26.2672 11.2246 61.7849 0
M  V30 42 H 26.1977 7.0348 60.8591 0
M  V30 43 H 24.6599 7.9026 61.1901 0
M  V30 44 H 25.0532 11.7115 59.6742 0
M  V30 45 H 26.5831 10.8269 59.3514 0
M  V30 46 H 24.9649 7.5263 58.7529 0
M  V30 47 H 26.5323 8.4018 58.8116 0
M  V30 48 H 23.7983 9.5693 59.5575 0
M  V30 49 H 24.0452 9.3135 57.234 0
M  V30 50 H 24.2889 10.8936 57.5659 0
M  V30 51 H 25.5596 9.9242 57.2305 0
M  V30 END ATOM
M  V30 BEGIN BOND
M  V30 1 2 1 2
M  V30 2 2 1 3
M  V30 3 1 1 4
M  V30 4 1 1 5
M  V30 5 2 5 6
M  V30 6 1 5 7
M  V30 7 1 6 8
M  V30 8 2 7 9
M  V30 9 2 8 10
M  V30 10 1 10 11
M  V30 11 1 11 12
M  V30 12 1 12 13
M  V30 13 2 12 14
M  V30 14 1 13 15
M  V30 15 1 13 16
M  V30 16 1 14 17
M  V30 17 2 15 18
M  V30 18 1 16 19
M  V30 19 2 16 20
M  V30 20 1 17 21
M  V30 21 1 21 22
M  V30 22 1 22 23
M  V30 23 1 22 24
M  V30 24 1 23 25
M  V30 25 1 24 26
M  V30 26 1 25 27
M  V30 27 1 27 28
M  V30 28 1 9 10
M  V30 29 2 17 19
M  V30 30 1 18 20
M  V30 31 1 26 27
M  V30 32 1 4 29
M  V30 33 1 4 30
M  V30 34 1 6 31
M  V30 35 1 7 32
M  V30 36 1 8 33
M  V30 37 1 9 34
M  V30 38 1 11 35
M  V30 39 1 14 36
M  V30 40 1 18 37
M  V30 41 1 21 38
M  V30 42 1 22 39
M  V30 43 1 23 40
M  V30 44 1 23 41
M  V30 45 1 24 42
M  V30 46 1 24 43
M  V30 47 1 25 44
M  V30 48 1 25 45
M  V30 49 1 26 46
M  V30 50 1 26 47
M  V30 51 1 27 48
M  V30 52 1 28 49
M  V30 53 1 28 50
M  V30 54 1 28 51
M  V30 END BOND
M  V30 BEGIN COLLECTION
M  V30 MDLV30/STEABS ATOMS=(2 22 27)
M  V30 END COLLECTION
M  V30 END CTAB
M  END
>  <Molecule Name>
LVRKQJAEQWVSCM-HISFQJFRNA-O

>  <hs_clash>
1.0

>  <hs_total>
108.70980720282775

>  <Total Molweight>
403.490

>  <cLogP>
-2.9615

>  <H-Acceptors>
10

>  <H-Donors>
4

>  <Polar Surface Area>
163.32

>  <Non-H Atoms>
28

>  <sp3-Atoms>
8

$$$$
LWEUMOYBSFDLPX-VFSNKAIFNA-N
Actelion Java MolfileCreator 2.0

  0  0  0  0  0  0              0 V3000
M  V30 BEGIN CTAB
M  V30 COUNTS 37 39 0 0 0
M  V30 BEGIN ATOM
M  V30 1 S 27.7122 6.3419 63.8452 0
M  V30 2 C 28.7424 5.5061 64.9746 0
M  V30 3 C 26.8117 4.9104 63.69 0
M  V30 4 N 28.3805 4.2357 65.2118 0
M  V30 5 N 29.8556 6.0014 65.6136 0
M  V30 6 C 27.2964 3.8977 64.4969 0
M  V30 7 C 25.6398 4.781 62.7794 0
M  V30 8 C 30.4273 7.2476 65.5099 0
M  V30 9 N 26.7916 2.7317 64.556 0
M  V30 10 O 24.9784 3.6223 62.7682 0
M  V30 11 C 25.1906 5.8701 61.8637 0
M  V30 12 C 31.1642 7.7598 66.6431 0
M  V30 13 C 30.3519 8.0627 64.3214 0
M  V30 14 C 23.8186 6.1968 61.7058 0
M  V30 15 C 26.1677 6.6032 61.0774 0
M  V30 16 C 31.7908 9.0345 66.584 0
M  V30 17 C 30.9806 9.3345 64.2655 0
M  V30 18 N 23.4638 7.2086 60.8179 0
M  V30 19 C 25.768 7.6255 60.1857 0
M  V30 20 C 31.7072 9.8377 65.3909 0
M  V30 21 C 24.3881 7.9191 60.0677 0
M  V30 22 C 32.3797 11.1732 65.344 0
M  V30 23 O 33.054 11.6013 66.4346 0
M  V30 24 N 32.3381 11.9331 64.2875 0
M  V30 25 H 30.538 5.2901 65.7803 0
M  V30 26 H 25.8467 2.7929 64.878 0
M  V30 27 H 27.3233 2.1697 65.1897 0
M  V30 28 H 31.2391 7.1685 67.5436 0
M  V30 29 H 29.8086 7.7001 63.4616 0
M  V30 30 H 23.0611 5.6689 62.266 0
M  V30 31 H 27.2161 6.3639 61.1754 0
M  V30 32 H 32.3343 9.4041 67.441 0
M  V30 33 H 30.9097 9.9274 63.3656 0
M  V30 34 H 26.4995 8.1702 59.6076 0
M  V30 35 H 24.0559 8.6953 59.3943 0
M  V30 36 H 32.801 12.8194 64.2905 0
M  V30 37 H 31.8432 11.6304 63.4731 0
M  V30 END ATOM
M  V30 BEGIN BOND
M  V30 1 1 1 2
M  V30 2 1 1 3
M  V30 3 2 2 4
M  V30 4 1 2 5
M  V30 5 2 3 6
M  V30 6 1 3 7
M  V30 7 1 5 8
M  V30 8 1 6 9
M  V30 9 2 7 10
M  V30 10 1 7 11
M  V30 11 2 8 12
M  V30 12 1 8 13
M  V30 13 2 11 14
M  V30 14 1 11 15
M  V30 15 1 12 16
M  V30 16 2 13 17
M  V30 17 1 14 18
M  V30 18 2 15 19
M  V30 19 2 16 20
M  V30 20 2 18 21
M  V30 21 1 20 22
M  V30 22 2 22 23
M  V30 23 1 22 24
M  V30 24 1 4 6
M  V30 25 1 17 20
M  V30 26 1 19 21
M  V30 27 1 5 25
M  V30 28 1 9 26
M  V30 29 1 9 27
M  V30 30 1 12 28
M  V30 31 1 13 29
M  V30 32 1 14 30
M  V30 33 1 15 31
M  V30 34 1 16 32
M  V30 35 1 17 33
M  V30 36 1 19 34
M  V30 37 1 21 35
M  V30 38 1 24 36
M  V30 39 1 24 37
M  V30 END BOND
M  V30 END CTAB
M  END
>  <Molecule Name>
LWEUMOYBSFDLPX-VFSNKAIFNA-N

>  <hs_clash>
1.0

>  <hs_total>
106.55147694200758

>  <Total Molweight>
339.378

>  <cLogP>
1.788

>  <H-Acceptors>
7

>  <H-Donors>
3

>  <Polar Surface Area>
152.23

>  <Non-H Atoms>
24

>  <sp3-Atoms>
0

$$$$
AHPKUZJCNHGFQA-UHFFFAOYNA-N
Actelion Java MolfileCreator 2.0

  0  0  0  0  0  0              0 V3000
M  V30 BEGIN CTAB
M  V30 COUNTS 40 43 0 0 0
M  V30 BEGIN ATOM
M  V30 1 Cl 26.5271 7.171 59.8571 0
M  V30 2 C 26.4134 8.7041 60.5775 0
M  V30 3 C 26.0392 9.8171 59.8172 0
M  V30 4 C 26.6881 8.8613 61.9496 0
M  V30 5 Cl 25.6944 9.7383 58.1265 0
M  V30 6 C 25.948 11.0653 60.4204 0
M  V30 7 C 27.1039 7.7106 62.7833 0
M  V30 8 C 26.5968 10.1176 62.5489 0
M  V30 9 C 26.2156 11.2145 61.7756 0
M  V30 10 N 26.3188 6.7104 62.9146 0
M  V30 11 C 28.467 7.8147 63.3699 0
M  V30 12 C 26.7717 5.6636 63.6583 0
M  V30 13 C 28.894 6.7538 64.1137 0
M  V30 14 N 28.0276 5.6661 64.274 0
M  V30 15 C 26.1901 4.4669 63.9875 0
M  V30 16 N 30.1278 6.6625 64.7354 0
M  V30 17 N 28.2633 4.4966 64.9778 0
M  V30 18 S 24.6096 3.8734 63.5251 0
M  V30 19 C 27.1418 3.7791 64.7951 0
M  V30 20 C 31.29 7.4741 64.4843 0
M  V30 21 C 23.9293 5.2821 62.8127 0
M  V30 22 C 31.3134 8.596 65.4748 0
M  V30 23 N 23.496 6.2831 62.3114 0
M  V30 24 C 31.4002 8.3406 66.8398 0
M  V30 25 C 31.2519 9.9292 65.0432 0
M  V30 26 C 31.4165 9.4155 67.7012 0
M  V30 27 C 31.2731 10.9451 65.9966 0
M  V30 28 N 31.358 10.7208 67.3106 0
M  V30 29 H 25.6667 11.926 59.832 0
M  V30 30 H 26.8181 10.2397 63.599 0
M  V30 31 H 26.1278 12.1884 62.2344 0
M  V30 32 H 29.0866 8.6856 63.2151 0
M  V30 33 H 30.2216 5.9549 65.4358 0
M  V30 34 H 26.9804 2.7958 65.2116 0
M  V30 35 H 32.1982 6.8641 64.5946 0
M  V30 36 H 31.2435 7.8821 63.4641 0
M  V30 37 H 31.4531 7.3289 67.2133 0
M  V30 38 H 31.189 10.1642 63.9911 0
M  V30 39 H 31.4801 9.2105 68.7596 0
M  V30 40 H 31.218 11.9683 65.6553 0
M  V30 END ATOM
M  V30 BEGIN BOND
M  V30 1 1 1 2
M  V30 2 2 2 3
M  V30 3 1 2 4
M  V30 4 1 3 5
M  V30 5 1 3 6
M  V30 6 1 4 7
M  V30 7 2 4 8
M  V30 8 2 6 9
M  V30 9 2 7 10
M  V30 10 1 7 11
M  V30 11 1 10 12
M  V30 12 2 11 13
M  V30 13 1 12 14
M  V30 14 2 12 15
M  V30 15 1 13 16
M  V30 16 1 14 17
M  V30 17 1 15 18
M  V30 18 1 15 19
M  V30 19 1 16 20
M  V30 20 1 18 21
M  V30 21 1 20 22
M  V30 22 3 21 23
M  V30 23 2 22 24
M  V30 24 1 22 25
M  V30 25 1 24 26
M  V30 26 2 25 27
M  V30 27 2 26 28
M  V30 28 1 8 9
M  V30 29 1 13 14
M  V30 30 2 17 19
M  V30 31 1 27 28
M  V30 32 1 6 29
M  V30 33 1 8 30
M  V30 34 1 9 31
M  V30 35 1 11 32
M  V30 36 1 16 33
M  V30 37 1 19 34
M  V30 38 1 20 35
M  V30 39 1 20 36
M  V30 40 1 24 37
M  V30 41 1 25 38
M  V30 42 1 26 39
M  V30 43 1 27 40
M  V30 END BOND
M  V30 END CTAB
M  END
>  <Molecule Name>
AHPKUZJCNHGFQA-UHFFFAOYNA-N

>  <hs_clash>
0.0

>  <hs_total>
106.44659907550684

>  <Total Molweight>
427.318

>  <cLogP>
3.1483

>  <H-Acceptors>
6

>  <H-Donors>
1

>  <Polar Surface Area>
104.2

>  <Non-H Atoms>
28

>  <sp3-Atoms>
2

$$$$
RFSDQDHHBKYQOD-PXPUHDKANA-N
Actelion Java MolfileCreator 2.0

  0  0  0  0  0  0              0 V3000
M  V30 BEGIN CTAB
M  V30 COUNTS 46 49 0 0 0
M  V30 BEGIN ATOM
M  V30 1 O 25.3372 7.2071 63.3012 0
M  V30 2 C 26.1323 6.2901 63.9343 0
M  V30 3 C 25.587 8.5982 63.4834 0
M  V30 4 N 27.2769 6.6429 64.5543 0
M  V30 5 C 25.7406 4.8795 63.9875 0
M  V30 6 C 25.0943 9.3628 62.2609 0
M  V30 7 C 28.0729 5.7545 65.2026 0
M  V30 8 N 24.6791 4.1646 63.5052 0
M  V30 9 C 26.6161 3.9917 64.6955 0
M  V30 10 C 25.6002 10.8084 62.3408 0
M  V30 11 C 25.5388 8.703 60.9525 0
M  V30 12 N 27.7546 4.4328 65.275 0
M  V30 13 N 29.2089 6.1898 65.809 0
M  V30 14 C 24.957 2.8643 63.9285 0
M  V30 15 N 26.1254 2.6879 64.6727 0
M  V30 16 C 25.2182 11.6482 61.11 0
M  V30 17 C 24.9463 9.4832 59.7828 0
M  V30 18 C 29.879 7.3348 65.5328 0
M  V30 19 C 25.4553 10.9291 59.7776 0
M  V30 20 C 29.7212 7.9601 64.3032 0
M  V30 21 C 30.747 7.873 66.4919 0
M  V30 22 C 30.4224 9.1117 64.033 0
M  V30 23 C 31.4458 9.0548 66.2207 0
M  V30 24 C 31.2804 9.6555 64.9781 0
M  V30 25 O 31.9117 10.7778 64.6678 0
M  V30 26 H 26.6671 8.7642 63.6098 0
M  V30 27 H 25.0545 8.9535 64.3783 0
M  V30 28 H 23.9944 9.3807 62.2827 0
M  V30 29 H 23.8952 4.4936 62.9783 0
M  V30 30 H 25.1689 11.2819 63.2354 0
M  V30 31 H 26.6965 10.7917 62.4273 0
M  V30 32 H 26.6367 8.7151 60.8867 0
M  V30 33 H 25.1809 7.6632 60.9226 0
M  V30 34 H 29.7163 5.5022 66.3285 0
M  V30 35 H 24.3027 2.0379 63.6932 0
M  V30 36 H 24.1507 11.9044 61.1818 0
M  V30 37 H 25.8179 12.5704 61.1191 0
M  V30 38 H 23.8497 9.4879 59.8711 0
M  V30 39 H 25.2362 8.9957 58.8407 0
M  V30 40 H 24.9338 11.4823 58.9824 0
M  V30 41 H 26.5356 10.9205 59.5706 0
M  V30 42 H 29.0522 7.5448 63.5641 0
M  V30 43 H 30.8769 7.3755 67.4417 0
M  V30 44 H 30.3038 9.5978 63.0758 0
M  V30 45 H 32.0997 9.4911 66.9616 0
M  V30 46 H 31.9738 10.8557 63.7231 0
M  V30 END ATOM
M  V30 BEGIN BOND
M  V30 1 1 1 2
M  V30 2 1 1 3
M  V30 3 2 2 4
M  V30 4 1 2 5
M  V30 5 1 3 6
M  V30 6 1 4 7
M  V30 7 1 5 8
M  V30 8 2 5 9
M  V30 9 1 6 10
M  V30 10 1 6 11
M  V30 11 2 7 12
M  V30 12 1 7 13
M  V30 13 1 8 14
M  V30 14 1 9 15
M  V30 15 1 10 16
M  V30 16 1 11 17
M  V30 17 1 13 18
M  V30 18 1 16 19
M  V30 19 2 18 20
M  V30 20 1 18 21
M  V30 21 1 20 22
M  V30 22 2 21 23
M  V30 23 2 22 24
M  V30 24 1 24 25
M  V30 25 1 9 12
M  V30 26 2 14 15
M  V30 27 1 17 19
M  V30 28 1 23 24
M  V30 29 1 3 26
M  V30 30 1 3 27
M  V30 31 1 6 28
M  V30 32 1 8 29
M  V30 33 1 10 30
M  V30 34 1 10 31
M  V30 35 1 11 32
M  V30 36 1 11 33
M  V30 37 1 13 34
M  V30 38 1 14 35
M  V30 39 1 16 36
M  V30 40 1 16 37
M  V30 41 1 17 38
M  V30 42 1 17 39
M  V30 43 1 19 40
M  V30 44 1 19 41
M  V30 45 1 20 42
M  V30 46 1 21 43
M  V30 47 1 22 44
M  V30 48 1 23 45
M  V30 49 1 25 46
M  V30 END BOND
M  V30 END CTAB
M  END
>  <Molecule Name>
RFSDQDHHBKYQOD-PXPUHDKANA-N

>  <hs_clash>
0.0

>  <hs_total>
106.20118263825076

>  <Total Molweight>
339.398

>  <cLogP>
3.5649

>  <H-Acceptors>
7

>  <H-Donors>
3

>  <Polar Surface Area>
95.95

>  <Non-H Atoms>
25

>  <sp3-Atoms>
9

$$$$
JLRKRQCTYQGDKJ-UDLWCGNRNA-N
Actelion Java MolfileCreator 2.0

  0  0  0  0  0  0              0 V3000
M  V30 BEGIN CTAB
M  V30 COUNTS 32 34 0 0 0
M  V30 BEGIN ATOM
M  V30 1 S 24.6654 6.3669 62.3379 0
M  V30 2 C 23.5719 6.581 61.0896 0
M  V30 3 C 24.1303 4.7805 62.6104 0
M  V30 4 N 23.4564 7.7145 60.3844 0 CHG=1
M  V30 5 N 22.8195 5.4706 60.8726 0
M  V30 6 C 23.1314 4.4342 61.7115 0
M  V30 7 C 24.6333 3.9711 63.5255 0
M  V30 8 O 22.5974 3.3305 61.6627 0
M  V30 9 C 25.8623 4.3814 64.2402 0
M  V30 10 O 26.4808 5.5553 64.0829 0
M  V30 11 C 26.565 3.6657 65.1249 0
M  V30 12 C 27.5511 5.5918 64.8668 0
M  V30 13 C 27.6192 4.428 65.5244 0
M  V30 14 C 28.4892 6.7237 64.937 0
M  V30 15 C 29.5438 6.7375 65.8515 0
M  V30 16 C 28.3215 7.7827 64.0467 0
M  V30 17 C 30.4093 7.8447 65.888 0
M  V30 18 C 29.193 8.8548 64.0557 0
M  V30 19 C 30.2298 8.9033 64.972 0
M  V30 20 C 31.154 10.089 64.9765 0
M  V30 21 O 32.069 10.161 65.8014 0
M  V30 22 O 30.9864 11.0316 64.124 0 CHG=-1
M  V30 23 H 24.0449 8.4956 60.5934 0
M  V30 24 H 22.7818 7.7794 59.6491 0
M  V30 25 H 22.1093 5.4158 60.1706 0
M  V30 26 H 24.1564 3.0279 63.7477 0
M  V30 27 H 26.3372 2.665 65.4613 0
M  V30 28 H 28.3746 4.1451 66.2424 0
M  V30 29 H 29.6932 5.9061 66.5243 0
M  V30 30 H 27.5024 7.7655 63.3431 0
M  V30 31 H 31.2082 7.8849 66.6139 0
M  V30 32 H 29.065 9.6582 63.3453 0
M  V30 END ATOM
M  V30 BEGIN BOND
M  V30 1 1 1 2
M  V30 2 1 1 3
M  V30 3 2 2 4
M  V30 4 1 2 5
M  V30 5 1 3 6
M  V30 6 2 3 7
M  V30 7 2 6 8
M  V30 8 1 7 9
M  V30 9 1 9 10
M  V30 10 2 9 11
M  V30 11 1 10 12
M  V30 12 1 11 13
M  V30 13 1 12 14
M  V30 14 2 14 15
M  V30 15 1 14 16
M  V30 16 1 15 17
M  V30 17 2 16 18
M  V30 18 2 17 19
M  V30 19 1 19 20
M  V30 20 2 20 21
M  V30 21 1 20 22
M  V30 22 1 5 6
M  V30 23 2 12 13
M  V30 24 1 18 19
M  V30 25 1 4 23
M  V30 26 1 4 24
M  V30 27 1 5 25
M  V30 28 1 7 26
M  V30 29 1 11 27
M  V30 30 1 13 28
M  V30 31 1 15 29
M  V30 32 1 16 30
M  V30 33 1 17 31
M  V30 34 1 18 32
M  V30 END BOND
M  V30 END CTAB
M  END
>  <Molecule Name>
JLRKRQCTYQGDKJ-UDLWCGNRNA-N

>  <hs_clash>
0.0

>  <hs_total>
106.16146789292716

>  <Total Molweight>
314.320

>  <cLogP>
0.0208

>  <H-Acceptors>
6

>  <H-Donors>
2

>  <Polar Surface Area>
133.26

>  <Non-H Atoms>
22

>  <sp3-Atoms>
2

$$$$
JTVILUUAQWQWBK-MOPYXKNVNA-O
Actelion Java MolfileCreator 2.0

  0  0  0  0  0  0              0 V3000
M  V30 BEGIN CTAB
M  V30 COUNTS 62 66 0 0 0
M  V30 BEGIN ATOM
M  V30 1 N 28.538 7.6958 64.5932 0
M  V30 2 C 27.3239 7.6933 63.8957 0
M  V30 3 C 29.0056 6.5602 65.2755 0
M  V30 4 N 26.5295 6.6677 63.8157 0
M  V30 5 N 26.9407 8.9347 63.1375 0
M  V30 6 N 30.2559 6.5858 65.9701 0
M  V30 7 C 28.1357 5.3876 65.2139 0
M  V30 8 C 26.967 5.5698 64.4742 0
M  V30 9 C 25.6735 8.9739 62.2062 0 CFG=1
M  V30 10 C 31.0307 7.8225 65.9273 0
M  V30 11 N 28.2196 4.123 65.7239 0
M  V30 12 N 26.2974 4.3702 64.5368 0
M  V30 13 C 25.5749 10.5221 61.752 0
M  V30 14 C 25.9119 8.0156 61.0831 0
M  V30 15 C 31.3965 8.5305 67.0286 0
M  V30 16 C 27.1027 3.5119 65.3111 0
M  V30 17 C 24.9879 4.093 63.888 0
M  V30 18 C 24.7398 10.623 60.4661 0
M  V30 19 C 25.0113 8.2724 59.8744 0
M  V30 20 C 30.8281 9.7516 67.3418 0
M  V30 21 C 32.3758 7.9775 67.8444 0
M  V30 22 C 25.1663 3.7733 62.3939 0
M  V30 23 C 23.672 4.8088 63.8953 0
M  V30 24 C 25.155 9.6872 59.366 0 CFG=1
M  V30 25 C 31.2472 10.4448 68.5108 0
M  V30 26 C 32.7937 8.6623 68.9997 0
M  V30 27 C 23.7586 3.6347 61.9382 0
M  V30 28 C 23.1811 4.8057 62.524 0
M  V30 29 N 24.2558 9.8962 58.1627 0 CHG=1
M  V30 30 C 32.2377 9.8854 69.3358 0
M  V30 31 H 27.7089 9.4956 62.8292 0
M  V30 32 H 30.5874 5.7846 66.468 0
M  V30 33 H 24.7747 8.7006 62.7788 0
M  V30 34 H 31.9683 7.5686 65.4115 0
M  V30 35 H 30.4474 8.5183 65.3063 0
M  V30 36 H 25.0942 11.109 62.5488 0
M  V30 37 H 26.5851 10.9154 61.5657 0
M  V30 38 H 26.9605 8.1044 60.7638 0
M  V30 39 H 25.7248 6.995 61.4483 0
M  V30 40 H 26.8501 2.4877 65.5427 0
M  V30 41 H 24.7222 3.1091 64.3025 0
M  V30 42 H 24.8195 11.6527 60.0872 0
M  V30 43 H 23.692 10.4066 60.7214 0
M  V30 44 H 23.9644 8.1025 60.1664 0
M  V30 45 H 25.2858 7.5743 59.0701 0
M  V30 46 H 30.0695 10.1772 66.7018 0
M  V30 47 H 32.8148 7.0239 67.592 0
M  V30 48 H 25.6778 4.5932 61.8682 0
M  V30 49 H 25.7272 2.8385 62.2495 0
M  V30 50 H 22.961 4.2874 64.5529 0
M  V30 51 H 23.8057 5.8428 64.2467 0
M  V30 52 H 26.2011 9.8787 59.0858 0
M  V30 53 H 30.8057 11.3978 68.7639 0
M  V30 54 H 33.5559 8.2302 69.6312 0
M  V30 55 H 23.2945 2.7155 62.3254 0
M  V30 56 H 23.6829 3.6497 60.8411 0
M  V30 57 H 22.0826 4.7488 62.5047 0
M  V30 58 H 23.5107 5.7098 61.9914 0
M  V30 59 H 24.164 10.8754 57.9806 0
M  V30 60 H 24.6559 9.4449 57.3655 0
M  V30 61 H 23.3538 9.5064 58.3491 0
M  V30 62 H 32.5627 10.4052 70.225 0
M  V30 END ATOM
M  V30 BEGIN BOND
M  V30 1 2 1 2
M  V30 2 1 1 3
M  V30 3 1 2 4
M  V30 4 1 2 5
M  V30 5 1 3 6
M  V30 6 2 3 7
M  V30 7 2 4 8
M  V30 8 1 5 9
M  V30 9 1 6 10
M  V30 10 1 7 11
M  V30 11 1 8 12
M  V30 12 1 9 13
M  V30 13 1 9 14
M  V30 14 1 10 15
M  V30 15 2 11 16
M  V30 16 1 12 17
M  V30 17 1 13 18
M  V30 18 1 14 19
M  V30 19 2 15 20
M  V30 20 1 15 21
M  V30 21 1 17 22
M  V30 22 1 17 23
M  V30 23 1 18 24
M  V30 24 1 20 25
M  V30 25 2 21 26
M  V30 26 1 22 27
M  V30 27 1 23 28
M  V30 28 1 24 29
M  V30 29 2 25 30
M  V30 30 1 7 8
M  V30 31 1 12 16
M  V30 32 1 19 24
M  V30 33 1 26 30
M  V30 34 1 27 28
M  V30 35 1 5 31
M  V30 36 1 6 32
M  V30 37 1 9 33
M  V30 38 1 10 34
M  V30 39 1 10 35
M  V30 40 1 13 36
M  V30 41 1 13 37
M  V30 42 1 14 38
M  V30 43 1 14 39
M  V30 44 1 16 40
M  V30 45 1 17 41
M  V30 46 1 18 42
M  V30 47 1 18 43
M  V30 48 1 19 44
M  V30 49 1 19 45
M  V30 50 1 20 46
M  V30 51 1 21 47
M  V30 52 1 22 48
M  V30 53 1 22 49
M  V30 54 1 23 50
M  V30 55 1 23 51
M  V30 56 1 24 52
M  V30 57 1 25 53
M  V30 58 1 26 54
M  V30 59 1 27 55
M  V30 60 1 27 56
M  V30 61 1 28 57
M  V30 62 1 28 58
M  V30 63 1 29 59
M  V30 64 1 29 60
M  V30 65 1 29 61
M  V30 66 1 30 62
M  V30 END BOND
M  V30 BEGIN COLLECTION
M  V30 MDLV30/STEABS ATOMS=(2 9 24)
M  V30 END COLLECTION
M  V30 END CTAB
M  END
>  <Molecule Name>
JTVILUUAQWQWBK-MOPYXKNVNA-O

>  <hs_clash>
0.0

>  <hs_total>
105.87738759374076

>  <Total Molweight>
406.556

>  <cLogP>
0.1815

>  <H-Acceptors>
7

>  <H-Donors>
3

>  <Polar Surface Area>
95.3

>  <Non-H Atoms>
30

>  <sp3-Atoms>
13

$$$$
BIIVYFLTOXDAOV-FJNKWUGLNA-N
Actelion Java MolfileCreator 2.0

  0  0  0  0  0  0              0 V3000
M  V30 BEGIN CTAB
M  V30 COUNTS 48 51 0 0 0
M  V30 BEGIN ATOM
M  V30 1 Cl 26.075 9.4202 64.6207 0
M  V30 2 C 27.7311 9.1268 64.8781 0
M  V30 3 C 28.2288 7.8315 64.9686 0
M  V30 4 C 28.5448 10.2501 64.9653 0
M  V30 5 C 27.3776 6.6057 64.8786 0
M  V30 6 C 29.6015 7.7112 65.1815 0
M  V30 7 C 29.8921 10.0963 65.1505 0
M  V30 8 O 26.3197 6.6966 63.9534 0
M  V30 9 C 27.5929 5.4588 65.5976 0
M  V30 10 C 30.4229 8.8296 65.2539 0
M  V30 11 C 25.5627 5.5847 63.6034 0
M  V30 12 C 26.8455 4.2538 65.2766 0
M  V30 13 C 25.813 4.3512 64.2282 0
M  V30 14 C 24.5652 5.7039 62.632 0
M  V30 15 O 27.0313 3.2019 65.8863 0
M  V30 16 C 25.0665 3.2149 63.8461 0
M  V30 17 C 23.8491 4.5455 62.2536 0
M  V30 18 C 24.2888 7.0493 61.9697 0 CFG=2
M  V30 19 O 25.3126 2.009 64.4038 0 CHG=-1
M  V30 20 C 24.0914 3.3158 62.8706 0
M  V30 21 O 22.8749 4.5349 61.2982 0
M  V30 22 C 22.9728 7.297 61.2418 0 CFG=1
M  V30 23 C 25.3476 7.446 60.9466 0
M  V30 24 O 21.8139 6.8127 61.855 0
M  V30 25 C 22.8054 8.7912 61.111 0
M  V30 26 C 25.121 8.8669 60.4541 0
M  V30 27 N 23.7335 9.1785 60.053 0 CHG=1 CFG=2
M  V30 28 C 23.5846 10.597 59.7413 0
M  V30 29 H 28.1164 11.2387 64.8877 0
M  V30 30 H 30.0351 6.7284 65.2923 0
M  V30 31 H 30.5343 10.9623 65.2149 0
M  V30 32 H 28.3155 5.4503 66.4003 0
M  V30 33 H 31.4864 8.7046 65.3925 0
M  V30 34 H 24.3411 7.8012 62.771 0
M  V30 35 H 23.5185 2.4456 62.5861 0
M  V30 36 H 22.6698 3.6374 61.0643 0
M  V30 37 H 23.0602 6.8728 60.2308 0
M  V30 38 H 26.3415 7.3811 61.4136 0
M  V30 39 H 25.2982 6.7563 60.0914 0
M  V30 40 H 21.8257 5.863 61.8505 0
M  V30 41 H 23.062 9.2945 62.055 0
M  V30 42 H 21.7717 9.0428 60.8308 0
M  V30 43 H 25.7725 9.0336 59.5838 0
M  V30 44 H 25.4047 9.5572 61.2624 0
M  V30 45 H 23.5179 8.6491 59.2327 0
M  V30 46 H 22.5446 10.8013 59.4464 0
M  V30 47 H 23.8383 11.1962 60.6284 0
M  V30 48 H 24.2591 10.8632 58.9141 0
M  V30 END ATOM
M  V30 BEGIN BOND
M  V30 1 1 1 2
M  V30 2 2 2 3
M  V30 3 1 2 4
M  V30 4 1 3 5
M  V30 5 1 3 6
M  V30 6 2 4 7
M  V30 7 1 5 8
M  V30 8 2 5 9
M  V30 9 2 6 10
M  V30 10 1 8 11
M  V30 11 1 9 12
M  V30 12 2 11 13
M  V30 13 1 11 14
M  V30 14 2 12 15
M  V30 15 1 13 16
M  V30 16 2 14 17
M  V30 17 1 14 18
M  V30 18 1 16 19
M  V30 19 2 16 20
M  V30 20 1 17 21
M  V30 21 1 18 22
M  V30 22 1 18 23
M  V30 23 1 22 24
M  V30 24 1 22 25
M  V30 25 1 23 26
M  V30 26 1 25 27
M  V30 27 1 27 28
M  V30 28 1 7 10
M  V30 29 1 12 13
M  V30 30 1 17 20
M  V30 31 1 26 27
M  V30 32 1 4 29
M  V30 33 1 6 30
M  V30 34 1 7 31
M  V30 35 1 9 32
M  V30 36 1 10 33
M  V30 37 1 18 34
M  V30 38 1 20 35
M  V30 39 1 21 36
M  V30 40 1 22 37
M  V30 41 1 23 38
M  V30 42 1 23 39
M  V30 43 1 24 40
M  V30 44 1 25 41
M  V30 45 1 25 42
M  V30 46 1 26 43
M  V30 47 1 26 44
M  V30 48 1 27 45
M  V30 49 1 28 46
M  V30 50 1 28 47
M  V30 51 1 28 48
M  V30 END BOND
M  V30 BEGIN COLLECTION
M  V30 MDLV30/STERAC1 ATOMS=(3 18 22 27)
M  V30 END COLLECTION
M  V30 END CTAB
M  END
>  <Molecule Name>
BIIVYFLTOXDAOV-FJNKWUGLNA-N

>  <hs_clash>
0.0

>  <hs_total>
105.8515116689394

>  <Total Molweight>
401.845

>  <cLogP>
-0.1702

>  <H-Acceptors>
6

>  <H-Donors>
3

>  <Polar Surface Area>
94.26

>  <Non-H Atoms>
28

>  <sp3-Atoms>
11

$$$$
BKUMVXIXUVYKDQ-NOAZDQGSNA-O
Actelion Java MolfileCreator 2.0

  0  0  0  0  0  0              0 V3000
M  V30 BEGIN CTAB
M  V30 COUNTS 35 37 0 0 0
M  V30 BEGIN ATOM
M  V30 1 S 31.7221 10.7684 64.6991 0
M  V30 2 O 32.7511 10.5854 63.6171 0
M  V30 3 O 32.4149 10.8745 66.0347 0
M  V30 4 N 30.868 12.1372 64.4126 0
M  V30 5 C 30.626 9.387 64.7169 0
M  V30 6 C 30.8456 8.3227 65.6015 0
M  V30 7 C 29.5327 9.3608 63.8533 0
M  V30 8 C 29.9752 7.228 65.6046 0
M  V30 9 C 28.665 8.2785 63.8648 0
M  V30 10 C 28.8865 7.2082 64.7351 0
M  V30 11 C 28.0103 6.1389 64.7255 0
M  V30 12 O 26.8197 6.1284 64.1158 0
M  V30 13 C 28.1974 4.9364 65.2844 0
M  V30 14 C 26.2593 4.93 64.3047 0
M  V30 15 C 27.1106 4.1867 65.0258 0
M  V30 16 C 24.9403 4.5144 63.7877 0
M  V30 17 C 24.3813 5.1936 62.7473 0
M  V30 18 S 24.707 6.8031 62.3658 0
M  V30 19 C 23.466 4.6417 61.8463 0
M  V30 20 C 23.6525 6.7607 61.0433 0
M  V30 21 O 23.0598 3.4823 61.9013 0
M  V30 22 N 23.0701 5.5505 60.8937 0
M  V30 23 N 23.4209 7.7939 60.2463 0 CHG=1
M  V30 24 H 30.4093 12.0651 63.5268 0
M  V30 25 H 30.5641 12.5293 65.281 0
M  V30 26 H 31.6855 8.3479 66.28 0
M  V30 27 H 29.3605 10.1836 63.1749 0
M  V30 28 H 30.1459 6.4016 66.2785 0
M  V30 29 H 27.8148 8.2632 63.1987 0
M  V30 30 H 29.0668 4.6237 65.8437 0
M  V30 31 H 26.9521 3.1667 65.3432 0
M  V30 32 H 24.4216 3.6775 64.2314 0
M  V30 33 H 22.4184 5.338 60.1654 0
M  V30 34 H 23.8826 8.6658 60.411 0
M  V30 35 H 22.7845 7.702 59.4805 0
M  V30 END ATOM
M  V30 BEGIN BOND
M  V30 1 2 1 2
M  V30 2 2 1 3
M  V30 3 1 1 4
M  V30 4 1 1 5
M  V30 5 2 5 6
M  V30 6 1 5 7
M  V30 7 1 6 8
M  V30 8 2 7 9
M  V30 9 2 8 10
M  V30 10 1 10 11
M  V30 11 1 11 12
M  V30 12 2 11 13
M  V30 13 1 12 14
M  V30 14 1 13 15
M  V30 15 1 14 16
M  V30 16 2 16 17
M  V30 17 1 17 18
M  V30 18 1 17 19
M  V30 19 1 18 20
M  V30 20 2 19 21
M  V30 21 1 19 22
M  V30 22 2 20 23
M  V30 23 1 9 10
M  V30 24 2 14 15
M  V30 25 1 20 22
M  V30 26 1 4 24
M  V30 27 1 4 25
M  V30 28 1 6 26
M  V30 29 1 7 27
M  V30 30 1 8 28
M  V30 31 1 9 29
M  V30 32 1 13 30
M  V30 33 1 15 31
M  V30 34 1 16 32
M  V30 35 1 22 33
M  V30 36 1 23 34
M  V30 37 1 23 35
M  V30 END BOND
M  V30 END CTAB
M  END
>  <Molecule Name>
BKUMVXIXUVYKDQ-NOAZDQGSNA-O

>  <hs_clash>
0.0

>  <hs_total>
105.83458094468374

>  <Total Molweight>
350.398

>  <cLogP>
1.3757

>  <H-Acceptors>
7

>  <H-Donors>
3

>  <Polar Surface Area>
161.67

>  <Non-H Atoms>
23

>  <sp3-Atoms>
2

$$$$
YOJFGNJSVVXBNX-FWDIHKGJNA-O
Actelion Java MolfileCreator 2.0

  0  0  0  0  0  0              0 V3000
M  V30 BEGIN CTAB
M  V30 COUNTS 51 53 0 0 0
M  V30 BEGIN ATOM
M  V30 1 O 24.049 7.2617 63.3698 0
M  V30 2 N 25.1367 7.829 62.8919 0 CHG=1
M  V30 3 O 25.0053 8.6243 61.865 0 CHG=-1
M  V30 4 C 26.304 7.5319 63.3852 0
M  V30 5 C 27.4751 8.4221 63.3388 0
M  V30 6 C 26.4464 6.2521 64.0155 0
M  V30 7 N 27.4729 9.6455 62.8165 0
M  V30 8 C 28.7034 7.9518 63.9094 0
M  V30 9 C 27.6779 5.8018 64.5883 0
M  V30 10 C 26.4574 10.6426 63.3309 0
M  V30 11 C 28.573 10.0954 61.8975 0
M  V30 12 C 28.8346 6.6563 64.5296 0
M  V30 13 C 27.7139 4.5387 65.1851 0
M  V30 14 C 26.1192 11.754 62.3269 0
M  V30 15 C 28.1761 11.2562 60.9738 0
M  V30 16 N 29.9797 6.2493 65.0479 0
M  V30 17 O 28.489 4.2818 66.0994 0
M  V30 18 N 26.8506 3.5551 64.764 0
M  V30 19 C 27.3971 12.3368 61.73 0
M  V30 20 C 31.3202 6.897 64.8014 0
M  V30 21 N 27.0409 13.3951 60.7986 0 CHG=1
M  V30 22 C 31.5159 8.0694 65.7442 0
M  V30 23 C 31.8339 9.3539 65.2811 0
M  V30 24 C 31.3806 7.9568 67.132 0
M  V30 25 N 32.0053 10.4434 66.1013 0
M  V30 26 N 31.5395 9.0093 67.9998 0
M  V30 27 C 31.8461 10.2153 67.4372 0
M  V30 28 N 31.9944 11.2071 68.2216 0
M  V30 29 H 25.5865 5.5999 64.0606 0
M  V30 30 H 29.5691 8.5966 63.8731 0
M  V30 31 H 25.5312 10.101 63.5741 0
M  V30 32 H 26.8592 11.109 64.2425 0
M  V30 33 H 29.427 10.4175 62.5112 0
M  V30 34 H 28.8721 9.2416 61.2719 0
M  V30 35 H 25.4989 11.3371 61.5197 0
M  V30 36 H 25.5629 12.5512 62.842 0
M  V30 37 H 29.0876 11.7033 60.5506 0
M  V30 38 H 27.5471 10.8661 60.1602 0
M  V30 39 H 29.9198 5.6335 65.8336 0
M  V30 40 H 26.8653 2.6562 65.2016 0
M  V30 41 H 26.2078 3.7389 64.0202 0
M  V30 42 H 28.0259 12.7369 62.539 0
M  V30 43 H 32.1172 6.158 64.97 0
M  V30 44 H 31.3653 7.2548 63.7622 0
M  V30 45 H 26.4294 14.0454 61.2498 0
M  V30 46 H 27.8693 13.869 60.5001 0
M  V30 47 H 26.5789 12.9991 60.0052 0
M  V30 48 H 31.9511 9.4958 64.2171 0
M  V30 49 H 31.1375 6.9887 67.5439 0
M  V30 50 H 32.9193 11.5744 68.1242 0
M  V30 51 H 31.8519 10.9104 69.166 0
M  V30 END ATOM
M  V30 BEGIN BOND
M  V30 1 2 1 2
M  V30 2 1 2 3
M  V30 3 1 2 4
M  V30 4 2 4 5
M  V30 5 1 4 6
M  V30 6 1 5 7
M  V30 7 1 5 8
M  V30 8 2 6 9
M  V30 9 1 7 10
M  V30 10 1 7 11
M  V30 11 2 8 12
M  V30 12 1 9 13
M  V30 13 1 10 14
M  V30 14 1 11 15
M  V30 15 1 12 16
M  V30 16 2 13 17
M  V30 17 1 13 18
M  V30 18 1 14 19
M  V30 19 1 16 20
M  V30 20 1 19 21
M  V30 21 1 20 22
M  V30 22 2 22 23
M  V30 23 1 22 24
M  V30 24 1 23 25
M  V30 25 2 24 26
M  V30 26 2 25 27
M  V30 27 1 27 28
M  V30 28 1 9 12
M  V30 29 1 15 19
M  V30 30 1 26 27
M  V30 31 1 6 29
M  V30 32 1 8 30
M  V30 33 1 10 31
M  V30 34 1 10 32
M  V30 35 1 11 33
M  V30 36 1 11 34
M  V30 37 1 14 35
M  V30 38 1 14 36
M  V30 39 1 15 37
M  V30 40 1 15 38
M  V30 41 1 16 39
M  V30 42 1 18 40
M  V30 43 1 18 41
M  V30 44 1 19 42
M  V30 45 1 20 43
M  V30 46 1 20 44
M  V30 47 1 21 45
M  V30 48 1 21 46
M  V30 49 1 21 47
M  V30 50 1 23 48
M  V30 51 1 24 49
M  V30 52 1 28 50
M  V30 53 1 28 51
M  V30 END BOND
M  V30 END CTAB
M  END
>  <Molecule Name>
YOJFGNJSVVXBNX-FWDIHKGJNA-O

>  <hs_clash>
0.0

>  <hs_total>
105.38846465520837

>  <Total Molweight>
387.423

>  <cLogP>
-0.9248

>  <H-Acceptors>
11

>  <H-Donors>
4

>  <Polar Surface Area>
183.62

>  <Non-H Atoms>
28

>  <sp3-Atoms>
9

$$$$
NQVIIUBWMBHLOZ-PKSOQXRJNA-N
Actelion Java MolfileCreator 2.0

  0  0  0  0  0  0              0 V3000
M  V30 BEGIN CTAB
M  V30 COUNTS 57 59 0 0 0
M  V30 BEGIN ATOM
M  V30 1 O 31.4274 11.5835 68.7998 0
M  V30 2 C 31.4101 10.5623 67.8816 0
M  V30 3 C 32.298 11.5162 69.9382 0
M  V30 4 C 31.6657 9.2136 68.2284 0
M  V30 5 C 31.1286 10.8699 66.5611 0
M  V30 6 C 31.6097 8.2433 67.2476 0
M  V30 7 C 31.0628 9.8668 65.6028 0
M  V30 8 C 31.3234 8.543 65.9311 0
M  V30 9 C 31.2874 7.4421 64.8931 0
M  V30 10 N 30.2286 6.4252 65.1288 0
M  V30 11 C 29.0579 6.5076 64.5805 0
M  V30 12 N 28.7296 7.6113 63.8625 0
M  V30 13 C 28.1584 5.4526 64.6947 0
M  V30 14 C 27.5308 7.6526 63.2337 0
M  V30 15 N 28.2281 4.2266 65.2808 0
M  V30 16 C 26.9752 5.5391 64.0042 0
M  V30 17 N 26.6318 6.6466 63.2794 0
M  V30 18 N 27.1564 8.792 62.5127 0
M  V30 19 C 27.068 3.6252 64.9816 0
M  V30 20 N 26.3105 4.4402 64.2398 0
M  V30 21 C 27.9028 10.0149 62.6962 0
M  V30 22 C 25.9475 8.7816 61.6835 0
M  V30 23 C 25.0083 4.037 63.6746 0
M  V30 24 C 28.847 10.0451 61.5246 0
M  V30 25 C 26.125 7.8948 60.4604 0
M  V30 26 C 25.0846 3.7084 62.1846 0
M  V30 27 C 23.9105 5.051 63.8984 0
M  V30 28 O 29.8834 10.7609 62.1583 0
M  V30 29 O 24.919 7.997 59.6749 0
M  V30 30 H 32.3982 12.5178 70.3823 0
M  V30 31 H 33.2888 11.1518 69.6301 0
M  V30 32 H 31.8641 10.8284 70.6788 0
M  V30 33 H 31.8911 8.9289 69.2492 0
M  V30 34 H 30.9179 11.8948 66.2805 0
M  V30 35 H 31.8092 7.2135 67.5186 0
M  V30 36 H 30.8472 10.1288 64.5755 0
M  V30 37 H 32.2525 6.9157 64.9302 0
M  V30 38 H 31.2065 7.8756 63.8947 0
M  V30 39 H 30.4265 5.6519 65.7312 0
M  V30 40 H 26.7665 2.6506 65.3064 0
M  V30 41 H 28.4241 10.0415 63.6573 0
M  V30 42 H 27.2369 10.8788 62.6576 0
M  V30 43 H 25.7287 9.7956 61.3423 0
M  V30 44 H 25.0846 8.4489 62.2651 0
M  V30 45 H 24.7026 3.1219 64.1828 0
M  V30 46 H 28.4314 10.5879 60.6726 0
M  V30 47 H 29.1781 9.0464 61.2321 0
M  V30 48 H 26.9807 8.2357 59.8741 0
M  V30 49 H 26.2913 6.853 60.7366 0
M  V30 50 H 25.9072 2.999 62.0118 0
M  V30 51 H 24.136 3.2575 61.8571 0
M  V30 52 H 25.2697 4.6311 61.6146 0
M  V30 53 H 23.0167 4.741 63.3372 0
M  V30 54 H 23.657 5.096 64.968 0
M  V30 55 H 24.2109 6.049 63.5458 0
M  V30 56 H 30.7227 10.4441 61.8464 0
M  V30 57 H 24.2975 7.3397 59.9653 0
M  V30 END ATOM
M  V30 BEGIN BOND
M  V30 1 1 1 2
M  V30 2 1 1 3
M  V30 3 2 2 4
M  V30 4 1 2 5
M  V30 5 1 4 6
M  V30 6 2 5 7
M  V30 7 2 6 8
M  V30 8 1 8 9
M  V30 9 1 9 10
M  V30 10 1 10 11
M  V30 11 2 11 12
M  V30 12 1 11 13
M  V30 13 1 12 14
M  V30 14 1 13 15
M  V30 15 2 13 16
M  V30 16 2 14 17
M  V30 17 1 14 18
M  V30 18 2 15 19
M  V30 19 1 16 20
M  V30 20 1 18 21
M  V30 21 1 18 22
M  V30 22 1 20 23
M  V30 23 1 21 24
M  V30 24 1 22 25
M  V30 25 1 23 26
M  V30 26 1 23 27
M  V30 27 1 24 28
M  V30 28 1 25 29
M  V30 29 1 7 8
M  V30 30 1 16 17
M  V30 31 1 19 20
M  V30 32 1 3 30
M  V30 33 1 3 31
M  V30 34 1 3 32
M  V30 35 1 4 33
M  V30 36 1 5 34
M  V30 37 1 6 35
M  V30 38 1 7 36
M  V30 39 1 9 37
M  V30 40 1 9 38
M  V30 41 1 10 39
M  V30 42 1 19 40
M  V30 43 1 21 41
M  V30 44 1 21 42
M  V30 45 1 22 43
M  V30 46 1 22 44
M  V30 47 1 23 45
M  V30 48 1 24 46
M  V30 49 1 24 47
M  V30 50 1 25 48
M  V30 51 1 25 49
M  V30 52 1 26 50
M  V30 53 1 26 51
M  V30 54 1 26 52
M  V30 55 1 27 53
M  V30 56 1 27 54
M  V30 57 1 27 55
M  V30 58 1 28 56
M  V30 59 1 29 57
M  V30 END BOND
M  V30 END CTAB
M  END
>  <Molecule Name>
NQVIIUBWMBHLOZ-PKSOQXRJNA-N

>  <hs_clash>
0.0

>  <hs_total>
105.06394995978852

>  <Total Molweight>
400.481

>  <cLogP>
1.4267

>  <H-Acceptors>
9

>  <H-Donors>
3

>  <Polar Surface Area>
108.56

>  <Non-H Atoms>
29

>  <sp3-Atoms>
12

$$$$
XONAFDRMWJEXGF-QQIASPBONA-O
Actelion Java MolfileCreator 2.0

  0  0  0  0  0  0              0 V3000
M  V30 BEGIN CTAB
M  V30 COUNTS 62 67 0 0 0
M  V30 BEGIN ATOM
M  V30 1 O 22.2209 5.5231 61.3087 0
M  V30 2 C 22.5397 4.2592 60.857 0
M  V30 3 C 20.9306 5.7711 60.7729 0
M  V30 4 C 23.6982 3.644 61.2761 0
M  V30 5 C 21.6788 3.6297 59.9819 0
M  V30 6 C 24.6854 4.2226 62.1594 0
M  V30 7 C 23.9644 2.3806 60.7828 0
M  V30 8 C 21.9561 2.3706 59.5043 0
M  V30 9 C 25.2573 3.3941 63.0953 0
M  V30 10 C 25.12 5.5251 62.0278 0
M  V30 11 C 23.1105 1.7432 59.9158 0
M  V30 12 N 21.0702 1.7501 58.6163 0
M  V30 13 C 26.2552 3.9471 63.8562 0
M  V30 14 C 26.1408 6.0697 62.7826 0
M  V30 15 N 27.011 3.3778 64.8349 0
M  V30 16 C 26.7226 5.2361 63.7235 0
M  V30 17 N 27.9355 4.1895 65.3647 0
M  V30 18 C 27.7598 5.3271 64.6899 0
M  V30 19 C 28.6392 6.4797 64.9526 0
M  V30 20 N 28.6364 7.6066 64.2785 0
M  V30 21 N 29.5937 6.4934 65.9252 0
M  V30 22 C 29.6218 8.3767 64.8447 0
M  V30 23 C 30.2341 7.6945 65.8771 0
M  V30 24 C 30.0291 9.6579 64.5019 0
M  V30 25 C 31.2614 8.1984 66.6426 0
M  V30 26 N 29.4334 10.3965 63.4612 0
M  V30 27 C 31.0538 10.1697 65.2721 0
M  V30 28 C 31.6509 9.4727 66.297 0
M  V30 29 C 29.5187 9.7373 62.1754 0
M  V30 30 C 29.7954 11.8101 63.484 0
M  V30 31 C 28.5779 10.4828 61.2547 0
M  V30 32 C 30.1015 12.3486 62.0966 0
M  V30 33 N 29.1663 11.8323 61.0508 0 CHG=1
M  V30 34 C 28.184 12.8352 60.5901 0
M  V30 35 H 20.5892 6.7696 61.0843 0
M  V30 36 H 20.9748 5.7251 59.6749 0
M  V30 37 H 20.2271 5.0114 61.144 0
M  V30 38 H 20.7756 4.1321 59.6683 0
M  V30 39 H 24.871 1.8796 61.0881 0
M  V30 40 H 24.9398 2.37 63.224 0
M  V30 41 H 24.6358 6.1535 61.2951 0
M  V30 42 H 23.3443 0.7519 59.5575 0
M  V30 43 H 20.2961 2.3578 58.4378 0
M  V30 44 H 20.7377 0.897 59.0183 0
M  V30 45 H 26.4674 7.0902 62.6464 0
M  V30 46 H 26.886 2.4318 65.1338 0
M  V30 47 H 29.7901 5.7498 66.5643 0
M  V30 48 H 31.7222 7.6418 67.4453 0
M  V30 49 H 31.4048 11.1688 65.0596 0
M  V30 50 H 32.4523 9.9412 66.8492 0
M  V30 51 H 29.2099 8.6853 62.2653 0
M  V30 52 H 30.5475 9.7858 61.7898 0
M  V30 53 H 30.6854 11.9373 64.1175 0
M  V30 54 H 28.958 12.3831 63.9091 0
M  V30 55 H 28.4918 9.9567 60.2927 0
M  V30 56 H 27.583 10.5684 61.7163 0
M  V30 57 H 30.0276 13.446 62.1221 0
M  V30 58 H 31.1265 12.0567 61.8256 0
M  V30 59 H 29.7592 11.7069 60.2557 0
M  V30 60 H 27.5328 12.387 59.8252 0
M  V30 61 H 27.573 13.1684 61.4422 0
M  V30 62 H 28.7147 13.6975 60.1601 0
M  V30 END ATOM
M  V30 BEGIN BOND
M  V30 1 1 1 2
M  V30 2 1 1 3
M  V30 3 2 2 4
M  V30 4 1 2 5
M  V30 5 1 4 6
M  V30 6 1 4 7
M  V30 7 2 5 8
M  V30 8 2 6 9
M  V30 9 1 6 10
M  V30 10 2 7 11
M  V30 11 1 8 12
M  V30 12 1 9 13
M  V30 13 2 10 14
M  V30 14 1 13 15
M  V30 15 2 13 16
M  V30 16 1 15 17
M  V30 17 1 16 18
M  V30 18 1 18 19
M  V30 19 2 19 20
M  V30 20 1 19 21
M  V30 21 1 20 22
M  V30 22 1 21 23
M  V30 23 1 22 24
M  V30 24 1 23 25
M  V30 25 1 24 26
M  V30 26 2 24 27
M  V30 27 2 25 28
M  V30 28 1 26 29
M  V30 29 1 26 30
M  V30 30 1 29 31
M  V30 31 1 30 32
M  V30 32 1 31 33
M  V30 33 1 33 34
M  V30 34 1 8 11
M  V30 35 1 14 16
M  V30 36 2 17 18
M  V30 37 2 22 23
M  V30 38 1 27 28
M  V30 39 1 32 33
M  V30 40 1 3 35
M  V30 41 1 3 36
M  V30 42 1 3 37
M  V30 43 1 5 38
M  V30 44 1 7 39
M  V30 45 1 9 40
M  V30 46 1 10 41
M  V30 47 1 11 42
M  V30 48 1 12 43
M  V30 49 1 12 44
M  V30 50 1 14 45
M  V30 51 1 15 46
M  V30 52 1 21 47
M  V30 53 1 25 48
M  V30 54 1 27 49
M  V30 55 1 28 50
M  V30 56 1 29 51
M  V30 57 1 29 52
M  V30 58 1 30 53
M  V30 59 1 30 54
M  V30 60 1 31 55
M  V30 61 1 31 56
M  V30 62 1 32 57
M  V30 63 1 32 58
M  V30 64 1 33 59
M  V30 65 1 34 60
M  V30 66 1 34 61
M  V30 67 1 34 62
M  V30 END BOND
M  V30 END CTAB
M  END
>  <Molecule Name>
XONAFDRMWJEXGF-QQIASPBONA-O

>  <hs_clash>
0.0

>  <hs_total>
104.91597050409949

>  <Total Molweight>
454.556

>  <cLogP>
0.7843

>  <H-Acceptors>
8

>  <H-Donors>
4

>  <Polar Surface Area>
100.29

>  <Non-H Atoms>
34

>  <sp3-Atoms>
9

$$$$
FTQAAMOHZPWVFX-ISSOKPIQNA-N
Actelion Java MolfileCreator 2.0

  0  0  0  0  0  0              0 V3000
M  V30 BEGIN CTAB
M  V30 COUNTS 47 49 0 0 0
M  V30 BEGIN ATOM
M  V30 1 Br 25.1418 3.777 63.1231 0
M  V30 2 C 26.7061 4.461 63.9574 0
M  V30 3 C 27.0316 5.7622 63.6642 0
M  V30 4 C 27.5093 3.6798 64.7549 0
M  V30 5 O 26.1932 6.4433 62.8168 0
M  V30 6 N 28.1419 6.2797 64.1956 0
M  V30 7 N 28.5822 4.248 65.2212 0
M  V30 8 C 26.7576 7.6231 62.1886 0 CFG=2
M  V30 9 C 28.913 5.5201 64.9657 0
M  V30 10 C 26.237 7.7896 60.7015 0 CFG=1
M  V30 11 C 26.5076 8.7898 63.1413 0
M  V30 12 N 30.0143 5.9765 65.5297 0
M  V30 13 O 24.8469 8.2537 60.9939 0
M  V30 14 C 26.5665 6.5663 59.8427 0
M  V30 15 C 30.6736 7.1053 65.2651 0
M  V30 16 C 31.7487 7.3859 66.103 0
M  V30 17 C 30.3526 8.0175 64.2432 0
M  V30 18 C 32.5002 8.5416 65.9648 0
M  V30 19 C 31.1248 9.1747 64.0898 0
M  V30 20 C 32.197 9.4198 64.9435 0
M  V30 21 S 33.1966 10.8278 64.7268 0 CFG=2
M  V30 22 O 34.0131 11.1319 65.9454 0
M  V30 23 N 34.1969 10.5381 63.492 0
M  V30 24 C 32.21 12.2997 64.3486 0
M  V30 25 C 32.0945 13.1936 65.5944 0
M  V30 26 C 32.9485 13.655 64.3846 0
M  V30 27 H 27.263 2.6531 64.9813 0
M  V30 28 H 27.8469 7.4861 62.1241 0
M  V30 29 H 26.7858 8.6414 60.2731 0
M  V30 30 H 26.9193 9.7132 62.7077 0
M  V30 31 H 25.4252 8.9098 63.2982 0
M  V30 32 H 26.9973 8.5876 64.1053 0
M  V30 33 H 30.6276 5.2386 65.8109 0
M  V30 34 H 24.3224 8.2025 60.2036 0
M  V30 35 H 26.1891 6.7223 58.8214 0
M  V30 36 H 27.6565 6.4225 59.813 0
M  V30 37 H 26.0906 5.6748 60.2771 0
M  V30 38 H 32.0041 6.6834 66.8825 0
M  V30 39 H 29.5185 7.8269 63.584 0
M  V30 40 H 33.3112 8.7527 66.6462 0
M  V30 41 H 30.8882 9.8801 63.3069 0
M  V30 42 H 35.1566 10.6133 63.7622 0
M  V30 43 H 31.3492 12.1437 63.6815 0
M  V30 44 H 32.5852 12.8957 66.5327 0
M  V30 45 H 31.1446 13.6999 65.8223 0
M  V30 46 H 32.6045 14.4874 63.7526 0
M  V30 47 H 34.0453 13.683 64.463 0
M  V30 END ATOM
M  V30 BEGIN BOND
M  V30 1 1 1 2
M  V30 2 2 2 3
M  V30 3 1 2 4
M  V30 4 1 3 5
M  V30 5 1 3 6
M  V30 6 2 4 7
M  V30 7 1 5 8
M  V30 8 2 6 9
M  V30 9 1 8 10
M  V30 10 1 8 11
M  V30 11 1 9 12
M  V30 12 1 10 13
M  V30 13 1 10 14
M  V30 14 1 12 15
M  V30 15 2 15 16
M  V30 16 1 15 17
M  V30 17 1 16 18
M  V30 18 2 17 19
M  V30 19 2 18 20
M  V30 20 1 20 21
M  V30 21 2 21 22
M  V30 22 2 21 23
M  V30 23 1 21 24
M  V30 24 1 24 25
M  V30 25 1 24 26
M  V30 26 1 7 9
M  V30 27 1 19 20
M  V30 28 1 25 26
M  V30 29 1 4 27
M  V30 30 1 8 28
M  V30 31 1 10 29
M  V30 32 1 11 30
M  V30 33 1 11 31
M  V30 34 1 11 32
M  V30 35 1 12 33
M  V30 36 1 13 34
M  V30 37 1 14 35
M  V30 38 1 14 36
M  V30 39 1 14 37
M  V30 40 1 16 38
M  V30 41 1 17 39
M  V30 42 1 18 40
M  V30 43 1 19 41
M  V30 44 1 23 42
M  V30 45 1 24 43
M  V30 46 1 25 44
M  V30 47 1 25 45
M  V30 48 1 26 46
M  V30 49 1 26 47
M  V30 END BOND
M  V30 BEGIN COLLECTION
M  V30 MDLV30/STERAC1 ATOMS=(3 8 10 21)
M  V30 END COLLECTION
M  V30 END CTAB
M  END
>  <Molecule Name>
FTQAAMOHZPWVFX-ISSOKPIQNA-N

>  <hs_clash>
3.0

>  <hs_total>
104.27544251837824

>  <Total Molweight>
441.349

>  <cLogP>
3.3304

>  <H-Acceptors>
7

>  <H-Donors>
3

>  <Polar Surface Area>
116.57

>  <Non-H Atoms>
26

>  <sp3-Atoms>
10

$$$$
XNHSEOXNPOIZSH-FGEGVHGVNA-N
Actelion Java MolfileCreator 2.0

  0  0  0  0  0  0              0 V3000
M  V30 BEGIN CTAB
M  V30 COUNTS 50 53 0 0 0
M  V30 BEGIN ATOM
M  V30 1 S 31.6387 11.7393 64.7152 0
M  V30 2 O 31.3774 12.8701 65.7072 0
M  V30 3 O 33.0983 11.803 64.2909 0
M  V30 4 N 30.8066 11.9196 63.539 0
M  V30 5 C 31.3248 10.2585 65.4996 0
M  V30 6 C 30.2924 9.3984 65.1394 0
M  V30 7 C 32.1617 9.9478 66.5562 0
M  V30 8 C 30.1282 8.2175 65.8496 0
M  V30 9 C 31.9931 8.7816 67.2641 0
M  V30 10 C 29.1676 7.3566 65.5523 0
M  V30 11 C 30.9805 7.9218 66.9052 0
M  V30 12 N 28.1562 7.5786 64.7422 0
M  V30 13 N 29.0842 6.1338 66.0387 0
M  V30 14 C 27.4459 6.464 64.7403 0
M  V30 15 C 28.0066 5.5829 65.53 0
M  V30 16 C 26.3449 6.1434 64.1109 0
M  V30 17 N 27.4518 4.3806 65.679 0
M  V30 18 O 25.9018 7.1373 63.3537 0
M  V30 19 N 25.7545 4.9569 64.2277 0
M  V30 20 C 26.3277 4.0685 65.0302 0
M  V30 21 C 24.6663 6.9652 62.7236 0
M  V30 22 N 25.789 2.8781 65.1764 0
M  V30 23 C 24.6074 8.259 62.0102 0
M  V30 24 C 25.598 8.1998 60.8401 0
M  V30 25 C 23.2193 8.4438 61.5238 0
M  V30 26 C 25.6041 9.4823 60.1469 0
M  V30 27 C 23.1726 9.722 60.7297 0
M  V30 28 C 24.1972 9.6517 59.5829 0
M  V30 29 H 31.2952 12.4753 62.8666 0
M  V30 30 H 30.5925 11.0276 63.1416 0
M  V30 31 H 29.6307 9.6454 64.3225 0
M  V30 32 H 32.955 10.6284 66.8278 0
M  V30 33 H 32.6464 8.5437 68.0906 0
M  V30 34 H 30.8465 7.0013 67.4539 0
M  V30 35 H 29.7238 5.7054 66.6768 0
M  V30 36 H 24.668 6.1096 62.0327 0
M  V30 37 H 23.8441 6.8517 63.4456 0
M  V30 38 H 24.9625 2.8148 64.6171 0
M  V30 39 H 26.3417 2.3372 65.8102 0
M  V30 40 H 24.8859 9.0809 62.6865 0
M  V30 41 H 26.6061 7.9846 61.2233 0
M  V30 42 H 25.2939 7.4064 60.1418 0
M  V30 43 H 22.9315 7.5961 60.8848 0
M  V30 44 H 22.5293 8.5096 62.3782 0
M  V30 45 H 25.8368 10.2969 60.8487 0
M  V30 46 H 26.3452 9.4758 59.3344 0
M  V30 47 H 23.415 10.5708 61.3864 0
M  V30 48 H 22.1639 9.858 60.3124 0
M  V30 49 H 24.1499 10.5806 58.9955 0
M  V30 50 H 23.9593 8.7956 58.9348 0
M  V30 END ATOM
M  V30 BEGIN BOND
M  V30 1 2 1 2
M  V30 2 2 1 3
M  V30 3 1 1 4
M  V30 4 1 1 5
M  V30 5 2 5 6
M  V30 6 1 5 7
M  V30 7 1 6 8
M  V30 8 2 7 9
M  V30 9 1 8 10
M  V30 10 2 8 11
M  V30 11 2 10 12
M  V30 12 1 10 13
M  V30 13 1 12 14
M  V30 14 1 13 15
M  V30 15 1 14 16
M  V30 16 1 15 17
M  V30 17 1 16 18
M  V30 18 2 16 19
M  V30 19 2 17 20
M  V30 20 1 18 21
M  V30 21 1 20 22
M  V30 22 1 21 23
M  V30 23 1 23 24
M  V30 24 1 23 25
M  V30 25 1 24 26
M  V30 26 1 25 27
M  V30 27 1 26 28
M  V30 28 1 9 11
M  V30 29 2 14 15
M  V30 30 1 19 20
M  V30 31 1 27 28
M  V30 32 1 4 29
M  V30 33 1 4 30
M  V30 34 1 6 31
M  V30 35 1 7 32
M  V30 36 1 9 33
M  V30 37 1 11 34
M  V30 38 1 13 35
M  V30 39 1 21 36
M  V30 40 1 21 37
M  V30 41 1 22 38
M  V30 42 1 22 39
M  V30 43 1 23 40
M  V30 44 1 24 41
M  V30 45 1 24 42
M  V30 46 1 25 43
M  V30 47 1 25 44
M  V30 48 1 26 45
M  V30 49 1 26 46
M  V30 50 1 27 47
M  V30 51 1 27 48
M  V30 52 1 28 49
M  V30 53 1 28 50
M  V30 END BOND
M  V30 END CTAB
M  END
>  <Molecule Name>
XNHSEOXNPOIZSH-FGEGVHGVNA-N

>  <hs_clash>
0.0

>  <hs_total>
103.19853740363197

>  <Total Molweight>
402.478

>  <cLogP>
2.1099

>  <H-Acceptors>
9

>  <H-Donors>
3

>  <Polar Surface Area>
158.25

>  <Non-H Atoms>
28

>  <sp3-Atoms>
9

$$$$
MYHBMTAGTIOCHM-UYBDAZJANA-N
Actelion Java MolfileCreator 2.0

  0  0  0  0  0  0              0 V3000
M  V30 BEGIN CTAB
M  V30 COUNTS 44 46 0 0 0
M  V30 BEGIN ATOM
M  V30 1 S 27.1351 7.6505 62.0754 0
M  V30 2 C 26.3929 6.1524 62.5735 0
M  V30 3 C 25.8068 7.951 60.9946 0
M  V30 4 C 27.1887 5.2945 63.471 0
M  V30 5 C 25.1637 6.0123 61.8994 0
M  V30 6 N 24.8794 7.0363 61.0114 0
M  V30 7 C 25.7561 9.1652 60.1234 0
M  V30 8 N 28.2209 5.9347 64.0418 0
M  V30 9 C 26.8967 3.9609 63.7319 0
M  V30 10 C 24.1408 4.9449 62.1006 0
M  V30 11 C 28.9953 5.2245 64.8875 0
M  V30 12 C 27.7608 3.3365 64.6164 0
M  V30 13 N 28.8033 3.9396 65.2161 0
M  V30 14 N 30.0358 5.8643 65.4761 0
M  V30 15 C 30.5985 7.1525 65.328 0
M  V30 16 C 31.5278 7.6086 66.259 0
M  V30 17 C 30.221 7.9764 64.2766 0
M  V30 18 C 32.1108 8.8587 66.1437 0
M  V30 19 C 30.7568 9.2434 64.1502 0
M  V30 20 N 33.0751 9.2141 67.2011 0 CHG=1
M  V30 21 C 31.687 9.7417 65.046 0
M  V30 22 O 33.7324 10.2307 67.0741 0
M  V30 23 O 33.0597 8.5689 68.2389 0 CHG=-1
M  V30 24 N 32.1031 11.1502 64.8182 0
M  V30 25 C 33.5314 11.2851 64.4092 0
M  V30 26 C 31.7506 12.0656 65.9447 0
M  V30 27 H 26.6545 9.7767 60.2929 0
M  V30 28 H 25.7155 8.8578 59.0681 0
M  V30 29 H 24.8602 9.7549 60.368 0
M  V30 30 H 26.0595 3.4502 63.2795 0
M  V30 31 H 23.2638 5.1532 61.4701 0
M  V30 32 H 24.5686 3.9704 61.823 0
M  V30 33 H 23.8357 4.9237 63.1573 0
M  V30 34 H 27.5855 2.2947 64.8399 0
M  V30 35 H 30.6477 5.2347 65.9545 0
M  V30 36 H 31.7997 6.9734 67.089 0
M  V30 37 H 29.5024 7.6244 63.5514 0
M  V30 38 H 30.4399 9.8654 63.3264 0
M  V30 39 H 33.7711 12.3479 64.258 0
M  V30 40 H 34.1786 10.8719 65.1967 0
M  V30 41 H 33.6973 10.7348 63.4715 0
M  V30 42 H 32.0872 13.0859 65.708 0
M  V30 43 H 30.6604 12.0642 66.091 0
M  V30 44 H 32.2445 11.7213 66.8653 0
M  V30 END ATOM
M  V30 BEGIN BOND
M  V30 1 1 1 2
M  V30 2 1 1 3
M  V30 3 1 2 4
M  V30 4 2 2 5
M  V30 5 2 3 6
M  V30 6 1 3 7
M  V30 7 2 4 8
M  V30 8 1 4 9
M  V30 9 1 5 10
M  V30 10 1 8 11
M  V30 11 2 9 12
M  V30 12 2 11 13
M  V30 13 1 11 14
M  V30 14 1 14 15
M  V30 15 2 15 16
M  V30 16 1 15 17
M  V30 17 1 16 18
M  V30 18 2 17 19
M  V30 19 1 18 20
M  V30 20 2 18 21
M  V30 21 2 20 22
M  V30 22 1 20 23
M  V30 23 1 21 24
M  V30 24 1 24 25
M  V30 25 1 24 26
M  V30 26 1 5 6
M  V30 27 1 12 13
M  V30 28 1 19 21
M  V30 29 1 7 27
M  V30 30 1 7 28
M  V30 31 1 7 29
M  V30 32 1 9 30
M  V30 33 1 10 31
M  V30 34 1 10 32
M  V30 35 1 10 33
M  V30 36 1 12 34
M  V30 37 1 14 35
M  V30 38 1 16 36
M  V30 39 1 17 37
M  V30 40 1 19 38
M  V30 41 1 25 39
M  V30 42 1 25 40
M  V30 43 1 25 41
M  V30 44 1 26 42
M  V30 45 1 26 43
M  V30 46 1 26 44
M  V30 END BOND
M  V30 END CTAB
M  END
>  <Molecule Name>
MYHBMTAGTIOCHM-UYBDAZJANA-N

>  <hs_clash>
0.0

>  <hs_total>
102.91922236385052

>  <Total Molweight>
370.436

>  <cLogP>
2.5323

>  <H-Acceptors>
8

>  <H-Donors>
1

>  <Polar Surface Area>
128

>  <Non-H Atoms>
26

>  <sp3-Atoms>
6

$$$$
UOLGTPNXRYIVCE-CBGLPUEENA-M
Actelion Java MolfileCreator 2.0

  0  0  0  0  0  0              0 V3000
M  V30 BEGIN CTAB
M  V30 COUNTS 45 46 0 0 0
M  V30 BEGIN ATOM
M  V30 1 O 25.015 9.0221 61.9098 0
M  V30 2 N 25.1395 7.9312 62.6155 0 CHG=1
M  V30 3 O 24.0585 7.1986 62.8358 0 CHG=-1
M  V30 4 C 26.2828 7.5666 63.087 0
M  V30 5 C 27.4548 8.4104 62.9891 0
M  V30 6 C 26.3974 6.291 63.7249 0
M  V30 7 N 27.3978 9.5768 62.4201 0
M  V30 8 C 28.689 7.9507 63.5283 0
M  V30 9 C 27.6394 5.8255 64.2671 0
M  V30 10 C 28.3852 9.9885 61.3995 0
M  V30 11 C 28.8093 6.6653 64.1715 0
M  V30 12 C 27.6713 4.56 64.8666 0
M  V30 13 C 28.7455 11.4588 61.5805 0
M  V30 14 N 29.9477 6.2588 64.6582 0
M  V30 15 O 28.5023 4.2613 65.692 0
M  V30 16 N 26.7554 3.622 64.5133 0
M  V30 17 C 28.2197 12.2518 60.3871 0
M  V30 18 C 31.2722 6.8998 64.3991 0
M  V30 19 C 28.6741 13.6951 60.474 0
M  V30 20 C 31.4968 8.0681 65.3451 0
M  V30 21 O 29.6795 14.047 59.8992 0
M  V30 22 O 27.961 14.5833 61.1814 0 CHG=-1
M  V30 23 C 31.2641 7.9506 66.7305 0
M  V30 24 C 31.9397 9.3253 64.8555 0
M  V30 25 N 31.4488 8.9946 67.6139 0
M  V30 26 C 32.1382 10.4083 65.7363 0
M  V30 27 C 31.8799 10.1939 67.1028 0
M  V30 28 H 25.5229 5.6618 63.8002 0
M  V30 29 H 26.6687 10.2111 62.6786 0
M  V30 30 H 29.5612 8.5833 63.4538 0
M  V30 31 H 29.2929 9.3762 61.5041 0
M  V30 32 H 27.956 9.84 60.3976 0
M  V30 33 H 28.2879 11.8392 62.506 0
M  V30 34 H 29.8385 11.5655 61.6413 0
M  V30 35 H 29.9337 5.4543 65.2523 0
M  V30 36 H 26.7813 2.7149 64.9334 0
M  V30 37 H 26.0547 3.8385 63.8334 0
M  V30 38 H 28.6032 11.8058 59.4575 0
M  V30 39 H 27.1202 12.2173 60.384 0
M  V30 40 H 32.0687 6.156 64.548 0
M  V30 41 H 31.3002 7.2646 63.3618 0
M  V30 42 H 30.9259 7.001 67.118 0
M  V30 43 H 32.126 9.4531 63.7994 0
M  V30 44 H 32.4765 11.3683 65.3753 0
M  V30 45 H 32.0287 11.017 67.7863 0
M  V30 END ATOM
M  V30 BEGIN BOND
M  V30 1 2 1 2
M  V30 2 1 2 3
M  V30 3 1 2 4
M  V30 4 2 4 5
M  V30 5 1 4 6
M  V30 6 1 5 7
M  V30 7 1 5 8
M  V30 8 2 6 9
M  V30 9 1 7 10
M  V30 10 2 8 11
M  V30 11 1 9 12
M  V30 12 1 10 13
M  V30 13 1 11 14
M  V30 14 2 12 15
M  V30 15 1 12 16
M  V30 16 1 13 17
M  V30 17 1 14 18
M  V30 18 1 17 19
M  V30 19 1 18 20
M  V30 20 2 19 21
M  V30 21 1 19 22
M  V30 22 2 20 23
M  V30 23 1 20 24
M  V30 24 1 23 25
M  V30 25 2 24 26
M  V30 26 2 25 27
M  V30 27 1 9 11
M  V30 28 1 26 27
M  V30 29 1 6 28
M  V30 30 1 7 29
M  V30 31 1 8 30
M  V30 32 1 10 31
M  V30 33 1 10 32
M  V30 34 1 13 33
M  V30 35 1 13 34
M  V30 36 1 14 35
M  V30 37 1 16 36
M  V30 38 1 16 37
M  V30 39 1 17 38
M  V30 40 1 17 39
M  V30 41 1 18 40
M  V30 42 1 18 41
M  V30 43 1 23 42
M  V30 44 1 24 43
M  V30 45 1 26 44
M  V30 46 1 27 45
M  V30 END BOND
M  V30 END CTAB
M  END
>  <Molecule Name>
UOLGTPNXRYIVCE-CBGLPUEENA-M

>  <hs_clash>
0.0

>  <hs_total>
102.71925742087839

>  <Total Molweight>
372.360

>  <cLogP>
-2.5007

>  <H-Acceptors>
10

>  <H-Donors>
3

>  <Polar Surface Area>
165.99

>  <Non-H Atoms>
27

>  <sp3-Atoms>
6

$$$$
FIRZNFNHYVXQPP-WXSBZZQSNA-O
Actelion Java MolfileCreator 2.0

  0  0  0  0  0  0              0 V3000
M  V30 BEGIN CTAB
M  V30 COUNTS 61 63 0 0 0
M  V30 BEGIN ATOM
M  V30 1 Cl 25.6754 5.9327 60.3498 0
M  V30 2 C 25.3668 7.3977 61.3367 0
M  V30 3 C 25.0022 7.3125 62.6941 0
M  V30 4 C 25.5234 8.6337 60.6891 0
M  V30 5 N 24.8339 6.1165 63.3597 0
M  V30 6 C 24.7961 8.5193 63.3737 0
M  V30 7 C 25.3099 9.8123 61.3835 0
M  V30 8 C 25.8372 5.5107 64.0527 0
M  V30 9 C 23.5247 5.4303 63.3362 0
M  V30 10 C 24.9457 9.7504 62.7273 0
M  V30 11 N 25.7159 4.1852 64.2616 0
M  V30 12 C 26.9839 6.158 64.5276 0
M  V30 13 C 23.3931 4.446 62.2262 0
M  V30 14 C 24.7051 11.0274 63.4868 0
M  V30 15 C 26.667 3.4805 64.8708 0
M  V30 16 C 27.9585 5.3838 65.1842 0
M  V30 17 N 23.1461 3.7024 61.3537 0
M  V30 18 N 27.7677 4.0664 65.3341 0
M  V30 19 N 29.1581 5.8855 65.7077 0
M  V30 20 C 29.6436 7.1224 65.4619 0
M  V30 21 C 29.4206 7.7524 64.238 0
M  V30 22 C 30.3694 7.7486 66.4702 0
M  V30 23 C 29.9295 9.0197 64.037 0
M  V30 24 C 30.903 9.0108 66.2721 0
M  V30 25 C 30.6655 9.6415 65.0505 0
M  V30 26 O 31.175 10.8898 64.8307 0
M  V30 27 C 30.3646 12.0465 64.9719 0
M  V30 28 C 30.8674 13.0109 63.9142 0 CFG=1
M  V30 29 O 30.9657 14.3209 64.48 0
M  V30 30 C 29.9697 12.8812 62.6709 0
M  V30 31 N 28.9117 13.8894 62.6028 0 CHG=1
M  V30 32 C 29.1272 14.987 61.6527 0
M  V30 33 C 27.5407 13.4697 62.888 0
M  V30 34 H 25.8105 8.6652 59.6485 0
M  V30 35 H 24.5161 8.499 64.4167 0
M  V30 36 H 25.4239 10.7666 60.8909 0
M  V30 37 H 22.7352 6.1885 63.2257 0
M  V30 38 H 23.3918 4.8996 64.2907 0
M  V30 39 H 27.1169 7.2215 64.3942 0
M  V30 40 H 23.8887 11.59 63.01 0
M  V30 41 H 24.429 10.7903 64.5248 0
M  V30 42 H 25.6215 11.6358 63.4812 0
M  V30 43 H 26.5423 2.4146 64.9909 0
M  V30 44 H 29.8669 5.1905 65.8273 0
M  V30 45 H 28.8584 7.2573 63.4602 0
M  V30 46 H 30.5173 7.2469 67.4151 0
M  V30 47 H 29.7599 9.5294 63.1002 0
M  V30 48 H 31.4872 9.4936 67.0418 0
M  V30 49 H 29.3065 11.8007 64.799 0
M  V30 50 H 30.4808 12.4798 65.9765 0
M  V30 51 H 31.8751 12.6813 63.6219 0
M  V30 52 H 31.6878 14.3467 65.0969 0
M  V30 53 H 30.6006 12.979 61.7752 0
M  V30 54 H 29.5011 11.8863 62.6828 0
M  V30 55 H 29.106 14.3786 63.4534 0
M  V30 56 H 28.2717 15.6779 61.6895 0
M  V30 57 H 30.0468 15.5279 61.9198 0
M  V30 58 H 29.2243 14.5781 60.6362 0
M  V30 59 H 26.8656 14.3336 62.7969 0
M  V30 60 H 27.2389 12.6919 62.1714 0
M  V30 61 H 27.4853 13.068 63.9106 0
M  V30 END ATOM
M  V30 BEGIN BOND
M  V30 1 1 1 2
M  V30 2 2 2 3
M  V30 3 1 2 4
M  V30 4 1 3 5
M  V30 5 1 3 6
M  V30 6 2 4 7
M  V30 7 1 5 8
M  V30 8 1 5 9
M  V30 9 2 6 10
M  V30 10 2 8 11
M  V30 11 1 8 12
M  V30 12 1 9 13
M  V30 13 1 10 14
M  V30 14 1 11 15
M  V30 15 2 12 16
M  V30 16 3 13 17
M  V30 17 2 15 18
M  V30 18 1 16 19
M  V30 19 1 19 20
M  V30 20 2 20 21
M  V30 21 1 20 22
M  V30 22 1 21 23
M  V30 23 2 22 24
M  V30 24 2 23 25
M  V30 25 1 25 26
M  V30 26 1 26 27
M  V30 27 1 27 28
M  V30 28 1 28 29
M  V30 29 1 28 30
M  V30 30 1 30 31
M  V30 31 1 31 32
M  V30 32 1 31 33
M  V30 33 1 7 10
M  V30 34 1 16 18
M  V30 35 1 24 25
M  V30 36 1 4 34
M  V30 37 1 6 35
M  V30 38 1 7 36
M  V30 39 1 9 37
M  V30 40 1 9 38
M  V30 41 1 12 39
M  V30 42 1 14 40
M  V30 43 1 14 41
M  V30 44 1 14 42
M  V30 45 1 15 43
M  V30 46 1 19 44
M  V30 47 1 21 45
M  V30 48 1 22 46
M  V30 49 1 23 47
M  V30 50 1 24 48
M  V30 51 1 27 49
M  V30 52 1 27 50
M  V30 53 1 28 51
M  V30 54 1 29 52
M  V30 55 1 30 53
M  V30 56 1 30 54
M  V30 57 1 31 55
M  V30 58 1 32 56
M  V30 59 1 32 57
M  V30 60 1 32 58
M  V30 61 1 33 59
M  V30 62 1 33 60
M  V30 63 1 33 61
M  V30 END BOND
M  V30 BEGIN COLLECTION
M  V30 MDLV30/STERAC1 ATOMS=(1 28)
M  V30 END COLLECTION
M  V30 END CTAB
M  END
>  <Molecule Name>
FIRZNFNHYVXQPP-WXSBZZQSNA-O

>  <hs_clash>
6.0

>  <hs_total>
102.2166647205895

>  <Total Molweight>
467.979

>  <cLogP>
1.1829

>  <H-Acceptors>
8

>  <H-Donors>
3

>  <Polar Surface Area>
98.74

>  <Non-H Atoms>
33

>  <sp3-Atoms>
10

$$$$
YCVGLKWJKIKVBI-CSJZRMLVNA-O
Actelion Java MolfileCreator 2.0

  0  0  0  0  0  0              0 V3000
M  V30 BEGIN CTAB
M  V30 COUNTS 60 63 0 0 0
M  V30 BEGIN ATOM
M  V30 1 O 26.9538 10.9753 60.6495 0
M  V30 2 C 25.8391 10.1517 60.3854 0 CFG=2
M  V30 3 C 25.9477 9.1036 61.4777 0 CFG=2
M  V30 4 C 26.0045 9.5586 58.9862 0
M  V30 5 C 25.1133 7.8091 61.3176 0
M  V30 6 C 25.8217 9.6694 62.8831 0
M  V30 7 N 25.1044 8.4033 58.8697 0 CHG=1
M  V30 8 C 25.15 7.3456 59.8563 0
M  V30 9 N 27.1365 9.4582 63.4609 0
M  V30 10 C 27.5658 8.2498 63.9767 0
M  V30 11 N 26.7491 7.1646 63.9002 0
M  V30 12 C 28.8171 8.1335 64.6146 0
M  V30 13 C 27.1628 5.9764 64.4102 0
M  V30 14 C 29.1928 6.8676 65.1309 0
M  V30 15 N 28.3028 5.8295 65.0464 0
M  V30 16 C 26.566 4.7067 64.4539 0
M  V30 17 N 30.3575 6.6738 65.7396 0
M  V30 18 N 28.5389 4.5269 65.4629 0
M  V30 19 C 27.4448 3.806 65.0782 0
M  V30 20 C 25.2345 4.2548 63.8995 0
M  V30 21 C 31.5097 7.5177 65.4159 0
M  V30 22 C 25.2911 4.1493 62.3512 0
M  V30 23 C 24.0428 5.1845 64.183 0
M  V30 24 C 31.6155 8.5491 66.5039 0
M  V30 25 C 31.7574 8.1495 67.8461 0
M  V30 26 C 31.5598 9.8928 66.1612 0
M  V30 27 C 31.8316 9.0861 68.8763 0
M  V30 28 C 31.6452 10.8314 67.1755 0
M  V30 29 C 31.7912 10.4446 68.527 0
M  V30 30 H 26.6601 11.8649 60.8072 0
M  V30 31 H 24.8873 10.6977 60.4634 0
M  V30 32 H 26.9898 8.7572 61.4181 0
M  V30 33 H 25.743 10.3125 58.2288 0
M  V30 34 H 27.0456 9.2365 58.839 0
M  V30 35 H 24.0721 8.0068 61.6123 0
M  V30 36 H 25.5333 7.0223 61.9613 0
M  V30 37 H 25.5741 10.7407 62.8536 0
M  V30 38 H 25.0515 9.131 63.4548 0
M  V30 39 H 24.1711 8.7628 58.8758 0
M  V30 40 H 25.2927 7.9796 57.9839 0
M  V30 41 H 24.2859 6.6863 59.6876 0
M  V30 42 H 26.0796 6.7784 59.7033 0
M  V30 43 H 27.8608 10.0001 63.0345 0
M  V30 44 H 29.4727 8.9867 64.7076 0
M  V30 45 H 30.514 5.8072 66.2129 0
M  V30 46 H 27.2858 2.7481 65.2256 0
M  V30 47 H 25.0021 3.2586 64.3043 0
M  V30 48 H 32.4256 6.9098 65.3807 0
M  V30 49 H 31.3575 8.0085 64.4433 0
M  V30 50 H 24.3136 3.8195 61.9697 0
M  V30 51 H 25.5375 5.1334 61.9258 0
M  V30 52 H 26.0625 3.421 62.0616 0
M  V30 53 H 23.1315 4.7602 63.7362 0
M  V30 54 H 23.9057 5.2843 65.2699 0
M  V30 55 H 24.2382 6.1747 63.7458 0
M  V30 56 H 31.8098 7.0972 68.0827 0
M  V30 57 H 31.4529 10.1981 65.131 0
M  V30 58 H 31.9169 8.7769 69.9076 0
M  V30 59 H 31.5989 11.882 66.9287 0
M  V30 60 H 31.8722 11.1993 69.2956 0
M  V30 END ATOM
M  V30 BEGIN BOND
M  V30 1 1 1 2
M  V30 2 1 2 3
M  V30 3 1 2 4
M  V30 4 1 3 5
M  V30 5 1 3 6
M  V30 6 1 4 7
M  V30 7 1 5 8
M  V30 8 1 6 9
M  V30 9 1 9 10
M  V30 10 2 10 11
M  V30 11 1 10 12
M  V30 12 1 11 13
M  V30 13 2 12 14
M  V30 14 1 13 15
M  V30 15 2 13 16
M  V30 16 1 14 17
M  V30 17 1 15 18
M  V30 18 1 16 19
M  V30 19 1 16 20
M  V30 20 1 17 21
M  V30 21 1 20 22
M  V30 22 1 20 23
M  V30 23 1 21 24
M  V30 24 2 24 25
M  V30 25 1 24 26
M  V30 26 1 25 27
M  V30 27 2 26 28
M  V30 28 2 27 29
M  V30 29 1 7 8
M  V30 30 1 14 15
M  V30 31 2 18 19
M  V30 32 1 28 29
M  V30 33 1 1 30
M  V30 34 1 2 31
M  V30 35 1 3 32
M  V30 36 1 4 33
M  V30 37 1 4 34
M  V30 38 1 5 35
M  V30 39 1 5 36
M  V30 40 1 6 37
M  V30 41 1 6 38
M  V30 42 1 7 39
M  V30 43 1 7 40
M  V30 44 1 8 41
M  V30 45 1 8 42
M  V30 46 1 9 43
M  V30 47 1 12 44
M  V30 48 1 17 45
M  V30 49 1 19 46
M  V30 50 1 20 47
M  V30 51 1 21 48
M  V30 52 1 21 49
M  V30 53 1 22 50
M  V30 54 1 22 51
M  V30 55 1 22 52
M  V30 56 1 23 53
M  V30 57 1 23 54
M  V30 58 1 23 55
M  V30 59 1 25 56
M  V30 60 1 26 57
M  V30 61 1 27 58
M  V30 62 1 28 59
M  V30 63 1 29 60
M  V30 END BOND
M  V30 BEGIN COLLECTION
M  V30 MDLV30/STERAC1 ATOMS=(2 2 3)
M  V30 END COLLECTION
M  V30 END CTAB
M  END
>  <Molecule Name>
YCVGLKWJKIKVBI-CSJZRMLVNA-O

>  <hs_clash>
0.0

>  <hs_total>
102.14222264585901

>  <Total Molweight>
395.529

>  <cLogP>
1.4939

>  <H-Acceptors>
7

>  <H-Donors>
4

>  <Polar Surface Area>
91.09

>  <Non-H Atoms>
29

>  <sp3-Atoms>
12

$$$$
OSCWQKTUILTARV-SEDXMNOZNA-O
Actelion Java MolfileCreator 2.0

  0  0  0  0  0  0              0 V3000
M  V30 BEGIN CTAB
M  V30 COUNTS 57 59 0 0 0
M  V30 BEGIN ATOM
M  V30 1 F 27.617 6.2789 60.8177 0
M  V30 2 C 26.6734 7.247 60.9103 0
M  V30 3 C 25.6076 7.0997 61.8109 0
M  V30 4 C 26.7662 8.3919 60.1206 0
M  V30 5 N 25.4778 5.9617 62.6211 0
M  V30 6 C 24.6426 8.105 61.8814 0
M  V30 7 C 25.8024 9.3907 60.2103 0
M  V30 8 C 26.4444 5.4787 63.5154 0
M  V30 9 C 24.7325 9.252 61.0967 0
M  V30 10 N 26.3415 4.2029 63.9597 0
M  V30 11 C 27.5051 6.2698 63.9953 0
M  V30 12 C 23.6507 10.3282 61.2123 0
M  V30 13 C 27.2286 3.713 64.8101 0
M  V30 14 C 28.4234 5.7058 64.903 0
M  V30 15 F 23.2778 10.8921 59.9746 0
M  V30 16 F 22.4933 9.7217 61.7028 0
M  V30 17 F 24.0472 11.3504 62.1021 0
M  V30 18 N 28.2363 4.4428 65.2709 0
M  V30 19 N 29.5317 6.3737 65.4578 0
M  V30 20 C 29.964 7.7049 65.2406 0
M  V30 21 C 30.5824 8.4237 66.2814 0
M  V30 22 C 29.827 8.3119 63.9913 0
M  V30 23 C 31.0324 9.7351 66.1016 0
M  V30 24 C 30.2812 9.6077 63.8182 0
M  V30 25 C 30.8573 10.3461 64.8549 0
M  V30 26 O 31.3068 11.6055 64.5278 0
M  V30 27 C 30.8187 12.798 65.1539 0
M  V30 28 C 31.5577 13.9626 64.4402 0 CFG=1
M  V30 29 O 32.5391 13.4837 63.4978 0
M  V30 30 C 32.2319 14.9952 65.3742 0
M  V30 31 N 33.0239 14.4656 66.5095 0 CHG=1
M  V30 32 C 34.2929 13.8965 66.0298 0
M  V30 33 C 33.4469 15.6538 67.2732 0
M  V30 34 H 27.5923 8.5042 59.4344 0
M  V30 35 H 24.9319 5.2373 62.2003 0
M  V30 36 H 23.8086 7.9913 62.5584 0
M  V30 37 H 25.8814 10.2742 59.594 0
M  V30 38 H 27.6136 7.2948 63.6725 0
M  V30 39 H 27.1293 2.6891 65.1388 0
M  V30 40 H 30.2166 5.7741 65.8716 0
M  V30 41 H 30.7125 7.95 67.2432 0
M  V30 42 H 29.3721 7.7774 63.1705 0
M  V30 43 H 31.5073 10.2684 66.9121 0
M  V30 44 H 30.1864 10.0656 62.8448 0
M  V30 45 H 29.7312 12.8893 65.0164 0
M  V30 46 H 31.0532 12.7934 66.2287 0
M  V30 47 H 30.7922 14.512 63.8726 0
M  V30 48 H 32.2097 12.7046 63.0658 0
M  V30 49 H 32.9058 15.6084 64.758 0
M  V30 50 H 31.4377 15.6311 65.793 0
M  V30 51 H 32.5021 13.8199 67.0673 0
M  V30 52 H 34.0892 12.9915 65.4389 0
M  V30 53 H 34.8116 14.6357 65.4015 0
M  V30 54 H 34.9269 13.6376 66.8905 0
M  V30 55 H 34.0456 15.3388 68.1405 0
M  V30 56 H 34.0519 16.3078 66.6281 0
M  V30 57 H 32.5585 16.2017 67.6206 0
M  V30 END ATOM
M  V30 BEGIN BOND
M  V30 1 1 1 2
M  V30 2 2 2 3
M  V30 3 1 2 4
M  V30 4 1 3 5
M  V30 5 1 3 6
M  V30 6 2 4 7
M  V30 7 1 5 8
M  V30 8 2 6 9
M  V30 9 2 8 10
M  V30 10 1 8 11
M  V30 11 1 9 12
M  V30 12 1 10 13
M  V30 13 2 11 14
M  V30 14 1 12 15
M  V30 15 1 12 16
M  V30 16 1 12 17
M  V30 17 2 13 18
M  V30 18 1 14 19
M  V30 19 1 19 20
M  V30 20 2 20 21
M  V30 21 1 20 22
M  V30 22 1 21 23
M  V30 23 2 22 24
M  V30 24 2 23 25
M  V30 25 1 25 26
M  V30 26 1 26 27
M  V30 27 1 27 28
M  V30 28 1 28 29
M  V30 29 1 28 30
M  V30 30 1 30 31
M  V30 31 1 31 32
M  V30 32 1 31 33
M  V30 33 1 7 9
M  V30 34 1 14 18
M  V30 35 1 24 25
M  V30 36 1 4 34
M  V30 37 1 5 35
M  V30 38 1 6 36
M  V30 39 1 7 37
M  V30 40 1 11 38
M  V30 41 1 13 39
M  V30 42 1 19 40
M  V30 43 1 21 41
M  V30 44 1 22 42
M  V30 45 1 23 43
M  V30 46 1 24 44
M  V30 47 1 27 45
M  V30 48 1 27 46
M  V30 49 1 28 47
M  V30 50 1 29 48
M  V30 51 1 30 49
M  V30 52 1 30 50
M  V30 53 1 31 51
M  V30 54 1 32 52
M  V30 55 1 32 53
M  V30 56 1 32 54
M  V30 57 1 33 55
M  V30 58 1 33 56
M  V30 59 1 33 57
M  V30 END BOND
M  V30 BEGIN COLLECTION
M  V30 MDLV30/STERAC1 ATOMS=(1 28)
M  V30 END COLLECTION
M  V30 END CTAB
M  END
>  <Molecule Name>
OSCWQKTUILTARV-SEDXMNOZNA-O

>  <hs_clash>
42.0

>  <hs_total>
101.83037830050097

>  <Total Molweight>
466.458

>  <cLogP>
2.5052

>  <H-Acceptors>
7

>  <H-Donors>
4

>  <Polar Surface Area>
83.74

>  <Non-H Atoms>
33

>  <sp3-Atoms>
9

$$$$
VPOGRVWIIVMWRI-RCPSYSLXNA-N
Actelion Java MolfileCreator 2.0

  0  0  0  0  0  0              0 V3000
M  V30 BEGIN CTAB
M  V30 COUNTS 48 51 0 0 0
M  V30 BEGIN ATOM
M  V30 1 S 33.5017 10.9029 64.8016 0
M  V30 2 O 33.9214 11.2254 66.0941 0
M  V30 3 O 34.5489 10.4102 64.0476 0
M  V30 4 N 32.818 12.1076 64.1172 0
M  V30 5 C 32.2996 9.6171 64.9507 0
M  V30 6 C 31.9949 9.1065 66.2065 0
M  V30 7 C 31.6522 9.1182 63.8107 0
M  V30 8 C 31.047 8.0972 66.3423 0
M  V30 9 C 30.7103 8.099 63.9375 0
M  V30 10 C 30.3917 7.5989 65.2144 0
M  V30 11 N 29.4918 6.5973 65.3559 0
M  V30 12 C 28.4029 6.4824 64.5356 0
M  V30 13 N 27.7883 5.2949 64.4157 0
M  V30 14 C 27.8845 7.5904 63.8348 0
M  V30 15 N 28.0858 4.1407 65.0005 0
M  V30 16 C 26.716 5.1436 63.6697 0
M  V30 17 C 26.7609 7.3906 63.0094 0
M  V30 18 C 27.1881 3.2301 64.5632 0
M  V30 19 N 26.209 6.1592 62.9329 0
M  V30 20 N 26.3301 3.8731 63.7157 0
M  V30 21 N 26.171 8.4315 62.3313 0
M  V30 22 C 26.9087 9.6239 61.9331 0
M  V30 23 C 26.8503 10.5482 63.1439 0
M  V30 24 C 26.089 10.2286 60.795 0
M  V30 25 C 27.4264 11.9119 62.7721 0
M  V30 26 C 26.6622 11.5926 60.4211 0
M  V30 27 C 26.6097 12.5178 61.6339 0
M  V30 28 H 32.5286 11.8478 63.196 0
M  V30 29 H 32.3763 12.6786 64.8093 0
M  V30 30 H 32.496 9.4948 67.0812 0
M  V30 31 H 31.8832 9.5234 62.8367 0
M  V30 32 H 30.8178 7.6995 67.32 0
M  V30 33 H 30.2268 7.6949 63.0605 0
M  V30 34 H 29.7602 5.7982 65.8941 0
M  V30 35 H 28.3369 8.5666 63.9286 0
M  V30 36 H 27.1547 2.1853 64.8341 0
M  V30 37 H 25.4459 8.1592 61.6987 0
M  V30 38 H 27.9433 9.4093 61.6272 0
M  V30 39 H 25.8045 10.6671 63.4643 0
M  V30 40 H 27.4381 10.1135 63.9657 0
M  V30 41 H 26.129 9.5624 59.9207 0
M  V30 42 H 25.0442 10.3468 61.1186 0
M  V30 43 H 27.3857 12.578 63.6469 0
M  V30 44 H 28.4714 11.793 62.4504 0
M  V30 45 H 26.0694 12.0274 59.603 0
M  V30 46 H 27.706 11.4745 60.0954 0
M  V30 47 H 25.5652 12.6403 61.9569 0
M  V30 48 H 27.0275 13.4991 61.3647 0
M  V30 END ATOM
M  V30 BEGIN BOND
M  V30 1 2 1 2
M  V30 2 2 1 3
M  V30 3 1 1 4
M  V30 4 1 1 5
M  V30 5 2 5 6
M  V30 6 1 5 7
M  V30 7 1 6 8
M  V30 8 2 7 9
M  V30 9 2 8 10
M  V30 10 1 10 11
M  V30 11 1 11 12
M  V30 12 1 12 13
M  V30 13 2 12 14
M  V30 14 1 13 15
M  V30 15 1 13 16
M  V30 16 1 14 17
M  V30 17 2 15 18
M  V30 18 1 16 19
M  V30 19 2 16 20
M  V30 20 1 17 21
M  V30 21 1 21 22
M  V30 22 1 22 23
M  V30 23 1 22 24
M  V30 24 1 23 25
M  V30 25 1 24 26
M  V30 26 1 25 27
M  V30 27 1 9 10
M  V30 28 2 17 19
M  V30 29 1 18 20
M  V30 30 1 26 27
M  V30 31 1 4 28
M  V30 32 1 4 29
M  V30 33 1 6 30
M  V30 34 1 7 31
M  V30 35 1 8 32
M  V30 36 1 9 33
M  V30 37 1 11 34
M  V30 38 1 14 35
M  V30 39 1 18 36
M  V30 40 1 21 37
M  V30 41 1 22 38
M  V30 42 1 23 39
M  V30 43 1 23 40
M  V30 44 1 24 41
M  V30 45 1 24 42
M  V30 46 1 25 43
M  V30 47 1 25 44
M  V30 48 1 26 45
M  V30 49 1 26 46
M  V30 50 1 27 47
M  V30 51 1 27 48
M  V30 END BOND
M  V30 END CTAB
M  END
>  <Molecule Name>
VPOGRVWIIVMWRI-RCPSYSLXNA-N

>  <hs_clash>
3.0

>  <hs_total>
101.71316866770809

>  <Total Molweight>
387.467

>  <cLogP>
1.4592

>  <H-Acceptors>
9

>  <H-Donors>
3

>  <Polar Surface Area>
135.68

>  <Non-H Atoms>
27

>  <sp3-Atoms>
7

$$$$
SGOFFNQMBSXTRU-GUHWYDPSNA-N
Actelion Java MolfileCreator 2.0

  0  0  0  0  0  0              0 V3000
M  V30 BEGIN CTAB
M  V30 COUNTS 42 44 0 0 0
M  V30 BEGIN ATOM
M  V30 1 S 29.1106 10.975 64.5438 0
M  V30 2 O 30.0427 12.0644 64.4598 0
M  V30 3 O 27.9324 11.4258 65.2429 0
M  V30 4 N 28.6816 10.4399 63.0469 0
M  V30 5 C 29.8365 9.6022 65.4185 0
M  V30 6 C 29.0443 8.5275 65.8807 0
M  V30 7 C 31.203 9.5969 65.659 0
M  V30 8 C 29.6436 7.456 66.5578 0
M  V30 9 C 31.7987 8.5361 66.3506 0
M  V30 10 N 28.8721 6.3344 67.0806 0
M  V30 11 C 31.0125 7.4736 66.8029 0
M  V30 12 C 27.8699 5.6069 66.3151 0
M  V30 13 N 27.0769 6.2634 65.4231 0
M  V30 14 N 27.6798 4.2635 66.5321 0
M  V30 15 C 26.1211 5.6054 64.7091 0
M  V30 16 C 26.7236 3.5975 65.8393 0
M  V30 17 C 25.9419 4.2515 64.9194 0
M  V30 18 C 25.3291 6.4416 63.713 0
M  V30 19 C 24.9105 3.4637 64.1786 0
M  V30 20 S 26.0226 7.3163 62.5527 0
M  V30 21 C 23.9125 6.6331 63.6435 0
M  V30 22 N 24.1175 2.8575 63.6163 0
M  V30 23 C 24.7159 7.9847 61.8389 0
M  V30 24 N 23.5734 7.5457 62.5187 0
M  V30 25 C 22.9163 6.0066 64.551 0
M  V30 26 N 24.7476 8.9013 60.7156 0
M  V30 27 C 25.9218 9.7214 60.4875 0
M  V30 28 H 29.436 10.5946 62.4096 0
M  V30 29 H 28.475 9.4627 63.0896 0
M  V30 30 H 27.9791 8.5266 65.7025 0
M  V30 31 H 31.8114 10.4169 65.3073 0
M  V30 32 H 32.8639 8.5356 66.5275 0
M  V30 33 H 29.371 5.7691 67.7373 0
M  V30 34 H 31.4737 6.6541 67.334 0
M  V30 35 H 26.5826 2.5397 66.0054 0
M  V30 36 H 22.3478 6.7931 65.069 0
M  V30 37 H 23.4362 5.3822 65.2923 0
M  V30 38 H 22.2264 5.3829 63.9638 0
M  V30 39 H 23.9622 8.9679 60.1002 0
M  V30 40 H 25.6165 10.6915 60.0681 0
M  V30 41 H 26.4457 9.8835 61.4412 0
M  V30 42 H 26.5936 9.2121 59.7813 0
M  V30 END ATOM
M  V30 BEGIN BOND
M  V30 1 2 1 2
M  V30 2 2 1 3
M  V30 3 1 1 4
M  V30 4 1 1 5
M  V30 5 2 5 6
M  V30 6 1 5 7
M  V30 7 1 6 8
M  V30 8 2 7 9
M  V30 9 1 8 10
M  V30 10 2 8 11
M  V30 11 1 10 12
M  V30 12 2 12 13
M  V30 13 1 12 14
M  V30 14 1 13 15
M  V30 15 2 14 16
M  V30 16 2 15 17
M  V30 17 1 15 18
M  V30 18 1 17 19
M  V30 19 1 18 20
M  V30 20 2 18 21
M  V30 21 3 19 22
M  V30 22 1 20 23
M  V30 23 1 21 24
M  V30 24 1 21 25
M  V30 25 1 23 26
M  V30 26 1 26 27
M  V30 27 1 9 11
M  V30 28 1 16 17
M  V30 29 2 23 24
M  V30 30 1 4 28
M  V30 31 1 4 29
M  V30 32 1 6 30
M  V30 33 1 7 31
M  V30 34 1 9 32
M  V30 35 1 10 33
M  V30 36 1 11 34
M  V30 37 1 16 35
M  V30 38 1 25 36
M  V30 39 1 25 37
M  V30 40 1 25 38
M  V30 41 1 26 39
M  V30 42 1 27 40
M  V30 43 1 27 41
M  V30 44 1 27 42
M  V30 END BOND
M  V30 END CTAB
M  END
>  <Molecule Name>
SGOFFNQMBSXTRU-GUHWYDPSNA-N

>  <hs_clash>
23.0

>  <hs_total>
100.69621973067639

>  <Total Molweight>
401.474

>  <cLogP>
2.2554

>  <H-Acceptors>
9

>  <H-Donors>
3

>  <Polar Surface Area>
183.3

>  <Non-H Atoms>
27

>  <sp3-Atoms>
3

$$$$
RIGZCVNCFXYBEG-NPVYFSBINA-N
Actelion Java MolfileCreator 2.0

  0  0  0  0  0  0              0 V3000
M  V30 BEGIN CTAB
M  V30 COUNTS 39 42 0 0 0
M  V30 BEGIN ATOM
M  V30 1 O 28.7471 7.7192 64.4077 0
M  V30 2 C 29.6045 7.0317 64.9694 0
M  V30 3 N 29.4008 5.772 65.396 0
M  V30 4 C 31.012 7.6172 65.2112 0
M  V30 5 C 28.2364 4.8916 65.3459 0
M  V30 6 C 30.972 8.7151 66.2691 0
M  V30 7 N 28.2007 3.6022 65.8187 0
M  V30 8 C 26.992 5.2106 64.8042 0
M  V30 9 C 31.2313 8.3982 67.6318 0
M  V30 10 C 30.6647 10.0563 65.8835 0
M  V30 11 N 26.9737 3.1229 65.5799 0
M  V30 12 C 26.2041 4.079 64.9587 0
M  V30 13 C 31.1811 9.4141 68.6146 0
M  V30 14 C 30.6095 11.0947 66.8397 0
M  V30 15 C 24.7305 3.8579 64.5391 0
M  V30 16 C 30.8634 10.8162 68.2026 0
M  V30 17 C 31.4336 9.1338 69.982 0
M  V30 18 C 23.8912 5.0735 64.1435 0
M  V30 19 C 24.3875 4.1082 63.071 0
M  V30 20 C 30.8125 11.8388 69.192 0
M  V30 21 C 31.3754 10.1822 70.9428 0
M  V30 22 C 31.0706 11.5166 70.552 0
M  V30 23 H 30.2008 5.359 65.8308 0
M  V30 24 H 31.6822 6.8141 65.5511 0
M  V30 25 H 31.3929 8.0387 64.2694 0
M  V30 26 H 26.7004 6.1486 64.3553 0
M  V30 27 H 31.4662 7.3832 67.9155 0
M  V30 28 H 30.4715 10.2796 64.8447 0
M  V30 29 H 26.6624 2.2033 65.818 0
M  V30 30 H 30.3732 12.1018 66.5298 0
M  V30 31 H 24.2002 3.0327 65.0364 0
M  V30 32 H 31.6696 8.1271 70.2934 0
M  V30 33 H 24.3194 6.0842 64.215 0
M  V30 34 H 22.8218 5.1098 64.3985 0
M  V30 35 H 23.6756 3.4493 62.5527 0
M  V30 36 H 25.1735 4.4237 62.3691 0
M  V30 37 H 30.5788 12.8551 68.9103 0
M  V30 38 H 31.5647 9.9627 71.9832 0
M  V30 39 H 31.0352 12.2955 71.2996 0
M  V30 END ATOM
M  V30 BEGIN BOND
M  V30 1 2 1 2
M  V30 2 1 2 3
M  V30 3 1 2 4
M  V30 4 1 3 5
M  V30 5 1 4 6
M  V30 6 2 5 7
M  V30 7 1 5 8
M  V30 8 2 6 9
M  V30 9 1 6 10
M  V30 10 1 7 11
M  V30 11 2 8 12
M  V30 12 1 9 13
M  V30 13 2 10 14
M  V30 14 1 12 15
M  V30 15 1 13 16
M  V30 16 2 13 17
M  V30 17 1 15 18
M  V30 18 1 15 19
M  V30 19 2 16 20
M  V30 20 1 17 21
M  V30 21 1 20 22
M  V30 22 1 11 12
M  V30 23 1 14 16
M  V30 24 1 18 19
M  V30 25 2 21 22
M  V30 26 1 3 23
M  V30 27 1 4 24
M  V30 28 1 4 25
M  V30 29 1 8 26
M  V30 30 1 9 27
M  V30 31 1 10 28
M  V30 32 1 11 29
M  V30 33 1 14 30
M  V30 34 1 15 31
M  V30 35 1 17 32
M  V30 36 1 18 33
M  V30 37 1 18 34
M  V30 38 1 19 35
M  V30 39 1 19 36
M  V30 40 1 20 37
M  V30 41 1 21 38
M  V30 42 1 22 39
M  V30 END BOND
M  V30 END CTAB
M  END
>  <Molecule Name>
RIGZCVNCFXYBEG-NPVYFSBINA-N

>  <hs_clash>
3.0

>  <hs_total>
100.61956534048639

>  <Total Molweight>
291.353

>  <cLogP>
3.4094

>  <H-Acceptors>
4

>  <H-Donors>
2

>  <Polar Surface Area>
57.78

>  <Non-H Atoms>
22

>  <sp3-Atoms>
4

$$$$
GCUAWHJDWUEGRV-OKXXHDAJNA-M
Actelion Java MolfileCreator 2.0

  0  0  0  0  0  0              0 V3000
M  V30 BEGIN CTAB
M  V30 COUNTS 35 37 0 0 0
M  V30 BEGIN ATOM
M  V30 1 S 27.8773 6.269 63.8291 0
M  V30 2 C 28.8548 5.3927 64.9711 0
M  V30 3 C 26.9024 4.8646 63.6988 0
M  V30 4 N 28.4395 4.1503 65.2228 0
M  V30 5 N 29.986 5.8345 65.6086 0
M  V30 6 C 27.3528 3.8404 64.5244 0
M  V30 7 C 25.7206 4.7825 62.7895 0
M  V30 8 C 30.6302 7.0391 65.4987 0
M  V30 9 N 26.8103 2.6822 64.6206 0
M  V30 10 O 25.0121 3.6328 62.7689 0
M  V30 11 C 25.298 5.8937 61.8856 0
M  V30 12 C 31.5308 7.4074 66.5528 0
M  V30 13 C 30.4789 7.9432 64.3791 0
M  V30 14 C 23.9308 6.2573 61.7633 0
M  V30 15 C 26.2613 6.6187 61.0882 0
M  V30 16 C 32.2506 8.6185 66.4999 0
M  V30 17 C 31.2019 9.1614 64.3291 0
M  V30 18 N 23.57 7.2861 60.9009 0
M  V30 19 C 25.8527 7.6686 60.2168 0
M  V30 20 C 32.1012 9.5141 65.3897 0
M  V30 21 C 24.4823 7.9904 60.1385 0
M  V30 22 C 32.8821 10.7824 65.3636 0
M  V30 23 O 33.7224 11.0537 66.3948 0
M  V30 24 O 32.7782 11.7058 64.3021 0 CHG=-1
M  V30 25 H 30.4 5.1845 66.2456 0
M  V30 26 H 27.3295 2.1233 65.2671 0
M  V30 27 H 26.009 2.6384 64.024 0
M  V30 28 H 31.659 6.7482 67.3985 0
M  V30 29 H 29.8074 7.6874 63.573 0
M  V30 30 H 23.1764 5.7387 62.3365 0
M  V30 31 H 27.3077 6.3605 61.1548 0
M  V30 32 H 32.9227 8.8753 67.3056 0
M  V30 33 H 31.0747 9.8276 63.4886 0
M  V30 34 H 26.5788 8.2079 59.6269 0
M  V30 35 H 24.1474 8.7834 59.4863 0
M  V30 END ATOM
M  V30 BEGIN BOND
M  V30 1 1 1 2
M  V30 2 1 1 3
M  V30 3 2 2 4
M  V30 4 1 2 5
M  V30 5 2 3 6
M  V30 6 1 3 7
M  V30 7 1 5 8
M  V30 8 1 6 9
M  V30 9 2 7 10
M  V30 10 1 7 11
M  V30 11 2 8 12
M  V30 12 1 8 13
M  V30 13 2 11 14
M  V30 14 1 11 15
M  V30 15 1 12 16
M  V30 16 2 13 17
M  V30 17 1 14 18
M  V30 18 2 15 19
M  V30 19 2 16 20
M  V30 20 2 18 21
M  V30 21 1 20 22
M  V30 22 2 22 23
M  V30 23 1 22 24
M  V30 24 1 4 6
M  V30 25 1 17 20
M  V30 26 1 19 21
M  V30 27 1 5 25
M  V30 28 1 9 26
M  V30 29 1 9 27
M  V30 30 1 12 28
M  V30 31 1 13 29
M  V30 32 1 14 30
M  V30 33 1 15 31
M  V30 34 1 16 32
M  V30 35 1 17 33
M  V30 36 1 19 34
M  V30 37 1 21 35
M  V30 END BOND
M  V30 END CTAB
M  END
>  <Molecule Name>
GCUAWHJDWUEGRV-OKXXHDAJNA-M

>  <hs_clash>
0.0

>  <hs_total>
100.04763941464421

>  <Total Molweight>
339.354

>  <cLogP>
-0.0606

>  <H-Acceptors>
7

>  <H-Donors>
2

>  <Polar Surface Area>
149.27

>  <Non-H Atoms>
24

>  <sp3-Atoms>
1

$$$$
CAGHIASAHLPQMS-HCKMINDGNA-N
Actelion Java MolfileCreator 2.0

  0  0  0  0  0  0              0 V3000
M  V30 BEGIN CTAB
M  V30 COUNTS 31 34 0 0 0
M  V30 BEGIN ATOM
M  V30 1 N 26.2508 5.8405 64.8619 0
M  V30 2 C 27.2988 5.4683 65.6123 0
M  V30 3 C 25.4895 4.8559 64.3712 0
M  V30 4 N 27.6234 4.2024 65.9103 0
M  V30 5 N 28.1221 6.462 66.1468 0
M  V30 6 C 24.3832 5.2032 63.5178 0
M  V30 7 C 25.7395 3.5253 64.6174 0
M  V30 8 C 26.8288 3.2557 65.409 0
M  V30 9 C 28.7245 7.3995 65.2106 0
M  V30 10 C 24.2356 6.3848 62.8235 0
M  V30 11 C 23.2465 4.4428 63.1525 0
M  V30 12 C 28.3431 8.852 65.2354 0
M  V30 13 C 29.7061 8.426 65.688 0
M  V30 14 N 23.0641 6.2799 62.1187 0
M  V30 15 C 24.9648 7.5824 62.6963 0
M  V30 16 N 22.4473 5.0967 62.3022 0
M  V30 17 N 22.5321 7.2104 61.2939 0
M  V30 18 C 24.5213 8.5692 61.907 0
M  V30 19 C 23.2432 8.2928 61.2102 0
M  V30 20 H 28.6632 6.2152 66.9511 0
M  V30 21 H 25.117 2.7411 64.2127 0
M  V30 22 H 27.0536 2.2244 65.6375 0
M  V30 23 H 28.9319 6.9977 64.2079 0
M  V30 24 H 23.0467 3.4469 63.5196 0
M  V30 25 H 28.2246 9.4059 64.2925 0
M  V30 26 H 27.6084 9.2159 65.969 0
M  V30 27 H 29.9723 8.4781 66.7542 0
M  V30 28 H 30.5885 8.6683 65.0776 0
M  V30 29 H 25.8898 7.7065 63.24 0
M  V30 30 H 25.0566 9.4997 61.7872 0
M  V30 31 H 22.8644 9.0726 60.5659 0
M  V30 END ATOM
M  V30 BEGIN BOND
M  V30 1 2 1 2
M  V30 2 1 1 3
M  V30 3 1 2 4
M  V30 4 1 2 5
M  V30 5 1 3 6
M  V30 6 2 3 7
M  V30 7 2 4 8
M  V30 8 1 5 9
M  V30 9 2 6 10
M  V30 10 1 6 11
M  V30 11 1 9 12
M  V30 12 1 9 13
M  V30 13 1 10 14
M  V30 14 1 10 15
M  V30 15 2 11 16
M  V30 16 1 14 17
M  V30 17 2 15 18
M  V30 18 2 17 19
M  V30 19 1 7 8
M  V30 20 1 12 13
M  V30 21 1 14 16
M  V30 22 1 18 19
M  V30 23 1 5 20
M  V30 24 1 7 21
M  V30 25 1 8 22
M  V30 26 1 9 23
M  V30 27 1 11 24
M  V30 28 1 12 25
M  V30 29 1 12 26
M  V30 30 1 13 27
M  V30 31 1 13 28
M  V30 32 1 15 29
M  V30 33 1 18 30
M  V30 34 1 19 31
M  V30 END BOND
M  V30 END CTAB
M  END
>  <Molecule Name>
CAGHIASAHLPQMS-HCKMINDGNA-N

>  <hs_clash>
0.0

>  <hs_total>
99.98901993706339

>  <Total Molweight>
252.280

>  <cLogP>
0.7409

>  <H-Acceptors>
6

>  <H-Donors>
1

>  <Polar Surface Area>
68

>  <Non-H Atoms>
19

>  <sp3-Atoms>
3

$$$$
CTFDMGIBHFQWKB-GIMVELNWNA-N
Actelion Java MolfileCreator 2.0

  0  0  0  0  0  0              0 V3000
M  V30 BEGIN CTAB
M  V30 COUNTS 24 25 0 0 0
M  V30 BEGIN ATOM
M  V30 1 S 23.8951 4.6761 62.9078 0
M  V30 2 C 25.215 5.4919 63.6783 0
M  V30 3 C 23.4602 6.1898 62.2523 0
M  V30 4 C 26.1671 4.8738 64.4793 0
M  V30 5 C 25.2198 6.9469 63.359 0
M  V30 6 N 24.1933 7.2745 62.5573 0
M  V30 7 C 22.2548 6.3235 61.3678 0
M  V30 8 N 27.1385 5.603 65.0406 0
M  V30 9 C 26.1025 3.5055 64.7197 0
M  V30 10 C 26.1158 8.0801 63.7696 0
M  V30 11 C 28.0595 5.0215 65.8201 0
M  V30 12 C 27.071 2.9283 65.5341 0
M  V30 13 N 28.026 3.7039 66.0594 0
M  V30 14 N 29.0844 5.8059 66.3725 0
M  V30 15 H 21.7732 5.3412 61.2526 0
M  V30 16 H 21.5433 7.0293 61.8216 0
M  V30 17 H 22.5638 6.6982 60.3811 0
M  V30 18 H 25.318 2.905 64.2838 0
M  V30 19 H 25.7533 9.0163 63.3198 0
M  V30 20 H 26.1091 8.1739 64.8658 0
M  V30 21 H 27.1407 7.8804 63.4249 0
M  V30 22 H 27.052 1.8684 65.7399 0
M  V30 23 H 29.6958 5.2256 66.9104 0
M  V30 24 H 28.9605 6.7594 66.0973 0
M  V30 END ATOM
M  V30 BEGIN BOND
M  V30 1 1 1 2
M  V30 2 1 1 3
M  V30 3 1 2 4
M  V30 4 2 2 5
M  V30 5 2 3 6
M  V30 6 1 3 7
M  V30 7 2 4 8
M  V30 8 1 4 9
M  V30 9 1 5 10
M  V30 10 1 8 11
M  V30 11 2 9 12
M  V30 12 2 11 13
M  V30 13 1 11 14
M  V30 14 1 5 6
M  V30 15 1 12 13
M  V30 16 1 7 15
M  V30 17 1 7 16
M  V30 18 1 7 17
M  V30 19 1 9 18
M  V30 20 1 10 19
M  V30 21 1 10 20
M  V30 22 1 10 21
M  V30 23 1 12 22
M  V30 24 1 14 23
M  V30 25 1 14 24
M  V30 END BOND
M  V30 END CTAB
M  END
>  <Molecule Name>
CTFDMGIBHFQWKB-GIMVELNWNA-N

>  <hs_clash>
0.0

>  <hs_total>
99.9756894695403

>  <Total Molweight>
206.272

>  <cLogP>
1.3498

>  <H-Acceptors>
4

>  <H-Donors>
1

>  <Polar Surface Area>
92.93

>  <Non-H Atoms>
14

>  <sp3-Atoms>
2

$$$$
IDZSPROLKKFEMF-VDHNXVJHNA-O
Actelion Java MolfileCreator 2.0

  0  0  0  0  0  0              0 V3000
M  V30 BEGIN CTAB
M  V30 COUNTS 56 58 0 0 0
M  V30 BEGIN ATOM
M  V30 1 O 24.0522 8.3861 62.1317 0
M  V30 2 N 24.2968 7.4834 63.0593 0 CHG=1
M  V30 3 O 23.2861 6.7787 63.5215 0 CHG=-1
M  V30 4 C 25.501 7.2762 63.4884 0
M  V30 5 C 26.4961 8.31 63.444 0
M  V30 6 C 25.8546 5.9959 64.0225 0
M  V30 7 N 26.195 9.4798 62.9782 0
M  V30 8 C 27.8166 8.0395 63.9224 0
M  V30 9 C 27.1779 5.7156 64.5091 0
M  V30 10 C 26.973 10.1278 61.8939 0
M  V30 11 C 28.182 6.745 64.4587 0
M  V30 12 C 27.4487 4.4567 65.016 0
M  V30 13 C 26.1114 11.2157 61.237 0
M  V30 14 N 29.3944 6.492 64.901 0
M  V30 15 O 28.3277 4.2888 65.8532 0
M  V30 16 N 26.7221 3.3762 64.5943 0
M  V30 17 N 26.3967 11.2906 59.8235 0
M  V30 18 C 30.6286 7.2584 64.5361 0
M  V30 19 C 27.259 12.2971 59.1945 0
M  V30 20 C 25.8811 10.3682 58.8066 0
M  V30 21 C 30.7795 8.4509 65.4484 0
M  V30 22 C 26.5053 13.0401 58.0698 0
M  V30 23 C 25.1232 11.1444 57.7199 0
M  V30 24 C 30.9003 9.7563 64.9582 0
M  V30 25 C 30.7914 8.341 66.8414 0
M  V30 26 N 26.0313 12.083 57.0825 0 CHG=1
M  V30 27 N 31.0253 10.8629 65.7582 0
M  V30 28 N 30.913 9.4079 67.6917 0
M  V30 29 C 31.023 10.6336 67.1017 0
M  V30 30 N 31.1352 11.6441 67.8647 0
M  V30 31 H 25.1058 5.2187 64.0609 0
M  V30 32 H 25.8126 10.112 63.6523 0
M  V30 33 H 28.5605 8.8212 63.8826 0
M  V30 34 H 27.8822 10.5827 62.3146 0
M  V30 35 H 27.2533 9.376 61.142 0
M  V30 36 H 25.0479 10.9737 61.381 0
M  V30 37 H 26.3326 12.1867 61.7045 0
M  V30 38 H 29.4579 5.9104 65.7122 0
M  V30 39 H 26.9123 2.4688 64.9685 0
M  V30 40 H 26.0004 3.4944 63.9119 0
M  V30 41 H 31.5078 6.6057 64.6402 0
M  V30 42 H 30.5493 7.6036 63.4947 0
M  V30 43 H 27.5789 13.0243 59.9554 0
M  V30 44 H 28.1425 11.7993 58.7687 0
M  V30 45 H 25.1983 9.6487 59.2819 0
M  V30 46 H 26.7218 9.8277 58.3474 0
M  V30 47 H 27.1844 13.7581 57.5867 0
M  V30 48 H 25.6469 13.5789 58.4982 0
M  V30 49 H 24.2863 11.6941 58.1759 0
M  V30 50 H 24.7338 10.4411 56.9692 0
M  V30 51 H 30.8948 9.9004 63.8879 0
M  V30 52 H 30.6992 7.3556 67.2737 0
M  V30 53 H 25.5516 12.5677 56.3509 0
M  V30 54 H 26.8096 11.5863 56.699 0
M  V30 55 H 31.12 11.3454 68.819 0
M  V30 56 H 30.3745 12.2726 67.7006 0
M  V30 END ATOM
M  V30 BEGIN BOND
M  V30 1 2 1 2
M  V30 2 1 2 3
M  V30 3 1 2 4
M  V30 4 2 4 5
M  V30 5 1 4 6
M  V30 6 1 5 7
M  V30 7 1 5 8
M  V30 8 2 6 9
M  V30 9 1 7 10
M  V30 10 2 8 11
M  V30 11 1 9 12
M  V30 12 1 10 13
M  V30 13 1 11 14
M  V30 14 2 12 15
M  V30 15 1 12 16
M  V30 16 1 13 17
M  V30 17 1 14 18
M  V30 18 1 17 19
M  V30 19 1 17 20
M  V30 20 1 18 21
M  V30 21 1 19 22
M  V30 22 1 20 23
M  V30 23 2 21 24
M  V30 24 1 21 25
M  V30 25 1 22 26
M  V30 26 1 24 27
M  V30 27 2 25 28
M  V30 28 2 27 29
M  V30 29 1 29 30
M  V30 30 1 9 11
M  V30 31 1 23 26
M  V30 32 1 28 29
M  V30 33 1 6 31
M  V30 34 1 7 32
M  V30 35 1 8 33
M  V30 36 1 10 34
M  V30 37 1 10 35
M  V30 38 1 13 36
M  V30 39 1 13 37
M  V30 40 1 14 38
M  V30 41 1 16 39
M  V30 42 1 16 40
M  V30 43 1 18 41
M  V30 44 1 18 42
M  V30 45 1 19 43
M  V30 46 1 19 44
M  V30 47 1 20 45
M  V30 48 1 20 46
M  V30 49 1 22 47
M  V30 50 1 22 48
M  V30 51 1 23 49
M  V30 52 1 23 50
M  V30 53 1 24 51
M  V30 54 1 25 52
M  V30 55 1 26 53
M  V30 56 1 26 54
M  V30 57 1 30 55
M  V30 58 1 30 56
M  V30 END BOND
M  V30 END CTAB
M  END
>  <Molecule Name>
IDZSPROLKKFEMF-VDHNXVJHNA-O

>  <hs_clash>
0.0

>  <hs_total>
98.45503690804927

>  <Total Molweight>
416.464

>  <cLogP>
-2.9959

>  <H-Acceptors>
12

>  <H-Donors>
5

>  <Polar Surface Area>
184.62

>  <Non-H Atoms>
30

>  <sp3-Atoms>
10

$$$$
PLQVWKCQWFFUFJ-ZMKPQBMCNA-O
Actelion Java MolfileCreator 2.0

  0  0  0  0  0  0              0 V3000
M  V30 BEGIN CTAB
M  V30 COUNTS 44 47 0 0 0
M  V30 BEGIN ATOM
M  V30 1 O 27.824 10.4568 64.376 0
M  V30 2 N 28.9669 9.9944 63.6725 0 CHG=1
M  V30 3 O 29.0969 10.3866 62.2913 0 CHG=-1
M  V30 4 C 29.7611 9.1822 64.3891 0
M  V30 5 C 29.347 7.88 64.6957 0
M  V30 6 C 30.9412 9.672 64.9441 0
M  V30 7 C 30.0708 7.0335 65.5373 0
M  V30 8 C 31.6854 8.8453 65.7832 0
M  V30 9 N 29.7243 5.7621 65.8077 0 CHG=1
M  V30 10 C 31.2405 7.5607 66.0827 0
M  V30 11 C 28.7475 5.0665 65.2065 0
M  V30 12 N 27.899 5.6554 64.3398 0
M  V30 13 N 28.5765 3.7508 65.4271 0
M  V30 14 C 26.9331 4.949 63.7215 0
M  V30 15 C 27.6467 2.9912 64.8542 0
M  V30 16 C 26.1212 5.5461 62.7613 0
M  V30 17 C 26.7513 3.5876 63.9814 0
M  V30 18 C 26.5558 6.6108 61.9767 0
M  V30 19 C 24.8779 4.9724 62.5337 0
M  V30 20 C 25.7393 7.1305 60.9771 0
M  V30 21 C 24.0405 5.5099 61.5652 0
M  V30 22 C 24.4689 6.597 60.8171 0
M  V30 23 C 26.1049 8.3181 60.0803 0
M  V30 24 N 25.5734 9.5424 60.7032 0
M  V30 25 N 24.3769 9.7494 60.9148 0
M  V30 26 C 26.3375 10.5232 61.1802 0
M  V30 27 C 24.2616 10.9275 61.5221 0
M  V30 28 N 25.4924 11.4206 61.6803 0
M  V30 29 H 28.4275 7.5149 64.2624 0
M  V30 30 H 31.2738 10.6765 64.7276 0
M  V30 31 H 32.6133 9.2035 66.2039 0
M  V30 32 H 30.2423 5.2927 66.5225 0
M  V30 33 H 31.821 6.9522 66.7603 0
M  V30 34 H 27.5909 1.9336 65.0649 0
M  V30 35 H 25.7428 3.4613 64.4019 0
M  V30 36 H 26.8179 3.0547 63.0216 0
M  V30 37 H 27.5337 7.0367 62.1455 0
M  V30 38 H 24.5633 4.1129 63.1069 0
M  V30 39 H 23.0621 5.0849 61.3956 0
M  V30 40 H 23.7985 7.0376 60.094 0
M  V30 41 H 25.66 8.1835 59.0836 0
M  V30 42 H 27.1984 8.3919 59.9871 0
M  V30 43 H 27.4159 10.5783 61.1647 0
M  V30 44 H 23.3405 11.3992 61.8312 0
M  V30 END ATOM
M  V30 BEGIN BOND
M  V30 1 2 1 2
M  V30 2 1 2 3
M  V30 3 1 2 4
M  V30 4 2 4 5
M  V30 5 1 4 6
M  V30 6 1 5 7
M  V30 7 2 6 8
M  V30 8 1 7 9
M  V30 9 2 7 10
M  V30 10 2 9 11
M  V30 11 1 11 12
M  V30 12 1 11 13
M  V30 13 2 12 14
M  V30 14 2 13 15
M  V30 15 1 14 16
M  V30 16 1 14 17
M  V30 17 2 16 18
M  V30 18 1 16 19
M  V30 19 1 18 20
M  V30 20 2 19 21
M  V30 21 2 20 22
M  V30 22 1 20 23
M  V30 23 1 23 24
M  V30 24 1 24 25
M  V30 25 1 24 26
M  V30 26 2 25 27
M  V30 27 2 26 28
M  V30 28 1 8 10
M  V30 29 1 15 17
M  V30 30 1 21 22
M  V30 31 1 27 28
M  V30 32 1 5 29
M  V30 33 1 6 30
M  V30 34 1 8 31
M  V30 35 1 9 32
M  V30 36 1 10 33
M  V30 37 1 15 34
M  V30 38 1 17 35
M  V30 39 1 17 36
M  V30 40 1 18 37
M  V30 41 1 19 38
M  V30 42 1 21 39
M  V30 43 1 22 40
M  V30 44 1 23 41
M  V30 45 1 23 42
M  V30 46 1 26 43
M  V30 47 1 27 44
M  V30 END BOND
M  V30 END CTAB
M  END
>  <Molecule Name>
PLQVWKCQWFFUFJ-ZMKPQBMCNA-O

>  <hs_clash>
1.0

>  <hs_total>
98.22570261003871

>  <Total Molweight>
374.383

>  <cLogP>
1.3642

>  <H-Acceptors>
9

>  <H-Donors>
1

>  <Polar Surface Area>
115.22

>  <Non-H Atoms>
28

>  <sp3-Atoms>
3

$$$$
MTASIWVJZCLGMA-YDBXFXKPNA-N
Actelion Java MolfileCreator 2.0

  0  0  0  0  0  0              0 V3000
M  V30 BEGIN CTAB
M  V30 COUNTS 53 56 0 0 0
M  V30 BEGIN ATOM
M  V30 1 S 32.3079 11.2051 64.5792 0
M  V30 2 O 33.2598 12.0179 65.5265 0
M  V30 3 O 33.0935 10.4043 63.5107 0
M  V30 4 N 31.4776 12.1473 63.8565 0
M  V30 5 C 31.3836 10.0683 65.6205 0
M  V30 6 C 30.4629 9.1114 65.1452 0
M  V30 7 C 31.699 10.1528 66.9769 0
M  V30 8 C 29.8427 8.2568 66.0786 0
M  V30 9 C 30.1795 9.0093 63.7885 0
M  V30 10 C 31.1054 9.3077 67.8941 0
M  V30 11 C 28.9748 7.2927 65.7515 0
M  V30 12 C 30.1895 8.3693 67.4248 0
M  V30 13 N 27.8301 7.3781 65.0425 0
M  V30 14 N 29.1891 6.0275 66.1627 0
M  V30 15 C 27.3349 6.1184 65.0075 0
M  V30 16 C 28.1716 5.304 65.7072 0
M  V30 17 C 26.2345 5.5633 64.4354 0
M  V30 18 N 27.9333 3.983 65.8217 0
M  V30 19 O 25.3669 6.4151 63.7627 0
M  V30 20 N 25.9658 4.2303 64.5726 0
M  V30 21 C 26.8342 3.4566 65.2451 0
M  V30 22 C 25.2672 6.188 62.3335 0
M  V30 23 N 26.6021 2.1756 65.3552 0
M  V30 24 C 24.2001 7.1273 61.7423 0
M  V30 25 C 24.2547 8.496 62.4694 0
M  V30 26 C 24.4823 7.3307 60.1857 0
M  V30 27 C 23.693 9.6159 61.6059 0
M  V30 28 C 25.4088 8.6048 59.8934 0
M  V30 29 C 24.6782 9.8811 60.3584 0
M  V30 30 H 31.9216 12.3904 62.9943 0
M  V30 31 H 30.5882 11.7314 63.6672 0
M  V30 32 H 32.4155 10.8874 67.3137 0
M  V30 33 H 30.7662 9.7559 63.2336 0
M  V30 34 H 30.4402 8.0012 63.4345 0
M  V30 35 H 29.1068 9.1897 63.6235 0
M  V30 36 H 31.3443 9.3729 68.9453 0
M  V30 37 H 29.7274 7.6993 68.1348 0
M  V30 38 H 29.962 5.6977 66.7045 0
M  V30 39 H 26.2392 6.3924 61.8607 0
M  V30 40 H 24.9809 5.1427 62.1468 0
M  V30 41 H 25.7483 1.9497 64.8863 0
M  V30 42 H 27.3372 1.7475 65.8804 0
M  V30 43 H 23.2022 6.6822 61.8702 0
M  V30 44 H 23.6653 8.4313 63.3961 0
M  V30 45 H 25.3013 8.7271 62.7159 0
M  V30 46 H 24.9842 6.4326 59.7977 0
M  V30 47 H 23.5214 7.4669 59.6677 0
M  V30 48 H 22.699 9.3277 61.2333 0
M  V30 49 H 23.6072 10.5336 62.2066 0
M  V30 50 H 25.6138 8.6708 58.8148 0
M  V30 51 H 26.3571 8.5037 60.4415 0
M  V30 52 H 24.0845 10.2724 59.5189 0
M  V30 53 H 25.429 10.6279 60.656 0
M  V30 END ATOM
M  V30 BEGIN BOND
M  V30 1 2 1 2
M  V30 2 2 1 3
M  V30 3 1 1 4
M  V30 4 1 1 5
M  V30 5 2 5 6
M  V30 6 1 5 7
M  V30 7 1 6 8
M  V30 8 1 6 9
M  V30 9 2 7 10
M  V30 10 1 8 11
M  V30 11 2 8 12
M  V30 12 2 11 13
M  V30 13 1 11 14
M  V30 14 1 13 15
M  V30 15 1 14 16
M  V30 16 1 15 17
M  V30 17 1 16 18
M  V30 18 1 17 19
M  V30 19 2 17 20
M  V30 20 2 18 21
M  V30 21 1 19 22
M  V30 22 1 21 23
M  V30 23 1 22 24
M  V30 24 1 24 25
M  V30 25 1 24 26
M  V30 26 1 25 27
M  V30 27 1 26 28
M  V30 28 1 27 29
M  V30 29 1 10 12
M  V30 30 2 15 16
M  V30 31 1 20 21
M  V30 32 1 28 29
M  V30 33 1 4 30
M  V30 34 1 4 31
M  V30 35 1 7 32
M  V30 36 1 9 33
M  V30 37 1 9 34
M  V30 38 1 9 35
M  V30 39 1 10 36
M  V30 40 1 12 37
M  V30 41 1 14 38
M  V30 42 1 22 39
M  V30 43 1 22 40
M  V30 44 1 23 41
M  V30 45 1 23 42
M  V30 46 1 24 43
M  V30 47 1 25 44
M  V30 48 1 25 45
M  V30 49 1 26 46
M  V30 50 1 26 47
M  V30 51 1 27 48
M  V30 52 1 27 49
M  V30 53 1 28 50
M  V30 54 1 28 51
M  V30 55 1 29 52
M  V30 56 1 29 53
M  V30 END BOND
M  V30 END CTAB
M  END
>  <Molecule Name>
MTASIWVJZCLGMA-YDBXFXKPNA-N

>  <hs_clash>
5.0

>  <hs_total>
98.2089241645682

>  <Total Molweight>
416.505

>  <cLogP>
2.4538

>  <H-Acceptors>
9

>  <H-Donors>
3

>  <Polar Surface Area>
158.25

>  <Non-H Atoms>
29

>  <sp3-Atoms>
10

$$$$
XOLMRFUGOINFDQ-IRXZHZTGNA-O
Actelion Java MolfileCreator 2.0

  0  0  0  0  0  0              0 V3000
M  V30 BEGIN CTAB
M  V30 COUNTS 38 41 0 0 0
M  V30 BEGIN ATOM
M  V30 1 S 22.8004 5.3711 61.9658 0
M  V30 2 C 23.4331 6.7826 61.1419 0
M  V30 3 C 24.3085 5.1711 62.815 0
M  V30 4 N 22.7857 7.5631 60.2504 0 CHG=1
M  V30 5 N 24.7034 7.1223 61.4415 0
M  V30 6 C 25.1932 6.2737 62.3468 0
M  V30 7 C 24.5885 4.0954 63.8084 0
M  V30 8 C 22.9422 9.0202 60.3405 0
M  V30 9 O 26.3925 6.455 62.7424 0
M  V30 10 C 25.9193 4.0116 64.4717 0
M  V30 11 C 24.3394 9.49 60.7453 0
M  V30 12 C 26.6904 5.1669 64.6134 0
M  V30 13 C 26.3996 2.7936 64.9652 0
M  V30 14 S 24.5255 10.309 62.2638 0
M  V30 15 C 25.5974 9.4125 60.1621 0
M  V30 16 C 27.9387 5.1354 65.2104 0
M  V30 17 C 27.652 2.7061 65.582 0
M  V30 18 C 26.2329 10.5557 62.1604 0
M  V30 19 C 26.6124 9.9893 60.9459 0
M  V30 20 C 28.4466 3.8424 65.7273 0
M  V30 21 C 28.7224 6.2753 65.3454 0
M  V30 22 N 29.6629 3.8058 66.3199 0
M  V30 23 C 29.9643 6.1582 65.9695 0
M  V30 24 C 30.4074 4.9194 66.4418 0
M  V30 25 H 22.2094 7.1559 59.542 0
M  V30 26 H 25.2022 7.893 61.045 0
M  V30 27 H 23.8222 3.373 64.0486 0
M  V30 28 H 22.7078 9.4513 59.3559 0
M  V30 29 H 22.2255 9.3968 61.0855 0
M  V30 30 H 26.304 6.1073 64.2485 0
M  V30 31 H 25.7927 1.9054 64.8682 0
M  V30 32 H 25.7782 8.9544 59.201 0
M  V30 33 H 28.005 1.7535 65.9479 0
M  V30 34 H 26.8694 11.0447 62.8832 0
M  V30 35 H 27.6418 9.9929 60.6202 0
M  V30 36 H 28.3781 7.23 64.9753 0
M  V30 37 H 30.5884 7.0317 66.0894 0
M  V30 38 H 31.3747 4.8546 66.9176 0
M  V30 END ATOM
M  V30 BEGIN BOND
M  V30 1 1 1 2
M  V30 2 1 1 3
M  V30 3 2 2 4
M  V30 4 1 2 5
M  V30 5 1 3 6
M  V30 6 2 3 7
M  V30 7 1 4 8
M  V30 8 2 6 9
M  V30 9 1 7 10
M  V30 10 1 8 11
M  V30 11 2 10 12
M  V30 12 1 10 13
M  V30 13 1 11 14
M  V30 14 2 11 15
M  V30 15 1 12 16
M  V30 16 2 13 17
M  V30 17 1 14 18
M  V30 18 1 15 19
M  V30 19 1 16 20
M  V30 20 2 16 21
M  V30 21 2 20 22
M  V30 22 1 21 23
M  V30 23 1 22 24
M  V30 24 1 5 6
M  V30 25 1 17 20
M  V30 26 2 18 19
M  V30 27 2 23 24
M  V30 28 1 4 25
M  V30 29 1 5 26
M  V30 30 1 7 27
M  V30 31 1 8 28
M  V30 32 1 8 29
M  V30 33 1 12 30
M  V30 34 1 13 31
M  V30 35 1 15 32
M  V30 36 1 17 33
M  V30 37 1 18 34
M  V30 38 1 19 35
M  V30 39 1 21 36
M  V30 40 1 23 37
M  V30 41 1 24 38
M  V30 END BOND
M  V30 END CTAB
M  END
>  <Molecule Name>
XOLMRFUGOINFDQ-IRXZHZTGNA-O

>  <hs_clash>
5.0

>  <hs_total>
97.80750920008694

>  <Total Molweight>
352.461

>  <cLogP>
2.9926

>  <H-Acceptors>
4

>  <H-Donors>
2

>  <Polar Surface Area>
109.5

>  <Non-H Atoms>
24

>  <sp3-Atoms>
2

$$$$
TZWAPMQFRGZIFN-PHOVEKIENA-N
Actelion Java MolfileCreator 2.0

  0  0  0  0  0  0              0 V3000
M  V30 BEGIN CTAB
M  V30 COUNTS 41 44 0 0 0
M  V30 BEGIN ATOM
M  V30 1 S 33.6468 10.8234 65.0669 0
M  V30 2 O 34.5535 10.6088 66.1588 0
M  V30 3 O 34.1922 10.8406 63.7476 0
M  V30 4 N 32.8853 12.2879 65.3477 0
M  V30 5 C 32.3871 9.5758 65.0285 0
M  V30 6 C 32.2085 12.6377 66.6441 0
M  V30 7 C 31.4847 9.5367 63.853 0
M  V30 8 C 32.2049 8.6426 66.1629 0
M  V30 9 S 30.8398 13.6414 66.735 0
M  V30 10 N 32.5757 12.2358 67.8984 0
M  V30 11 C 30.4478 8.5246 63.781 0
M  V30 12 C 31.137 7.6284 66.106 0
M  V30 13 C 30.6888 13.4558 68.4147 0
M  V30 14 C 31.7615 12.6939 68.9088 0
M  V30 15 C 30.2552 7.5566 64.9225 0
M  V30 16 N 29.3123 6.59 64.9727 0
M  V30 17 C 28.0115 6.596 64.2587 0
M  V30 18 C 27.2408 5.5081 64.0861 0
M  V30 19 C 27.4343 4.1568 64.7551 0
M  V30 20 C 26.0873 5.3217 63.2396 0
M  V30 21 O 28.3297 3.9257 65.5711 0
M  V30 22 N 26.5082 3.2871 64.2806 0
M  V30 23 C 25.6968 3.9193 63.3684 0
M  V30 24 C 25.329 6.2667 62.3642 0
M  V30 25 C 24.557 3.3855 62.5961 0
M  V30 26 C 24.1513 5.7451 61.6137 0
M  V30 27 C 23.7735 4.3081 61.7255 0
M  V30 28 H 32.4516 12.6858 64.5391 0
M  V30 29 H 31.5983 10.2565 63.0561 0
M  V30 30 H 32.8504 8.7047 67.0269 0
M  V30 31 H 29.8129 8.4637 62.9094 0
M  V30 32 H 30.9992 6.9399 66.9269 0
M  V30 33 H 29.8877 13.8624 69.0149 0
M  V30 34 H 31.927 12.492 69.9568 0
M  V30 35 H 27.6614 7.5337 63.8526 0
M  V30 36 H 28.9334 4.6586 65.5957 0
M  V30 37 H 26.4275 2.3286 64.5539 0
M  V30 38 H 25.6267 7.3013 62.2777 0
M  V30 39 H 24.2941 2.3402 62.6612 0
M  V30 40 H 23.572 6.4091 60.989 0
M  V30 41 H 22.9257 3.9321 61.1719 0
M  V30 END ATOM
M  V30 BEGIN BOND
M  V30 1 2 1 2
M  V30 2 2 1 3
M  V30 3 1 1 4
M  V30 4 1 1 5
M  V30 5 1 4 6
M  V30 6 2 5 7
M  V30 7 1 5 8
M  V30 8 1 6 9
M  V30 9 2 6 10
M  V30 10 1 7 11
M  V30 11 2 8 12
M  V30 12 1 9 13
M  V30 13 1 10 14
M  V30 14 2 11 15
M  V30 15 1 15 16
M  V30 16 2 16 17
M  V30 17 1 17 18
M  V30 18 2 18 19
M  V30 19 1 18 20
M  V30 20 1 19 21
M  V30 21 1 19 22
M  V30 22 2 20 23
M  V30 23 1 20 24
M  V30 24 1 23 25
M  V30 25 2 24 26
M  V30 26 2 25 27
M  V30 27 1 12 15
M  V30 28 2 13 14
M  V30 29 1 22 23
M  V30 30 1 26 27
M  V30 31 1 4 28
M  V30 32 1 7 29
M  V30 33 1 8 30
M  V30 34 1 11 31
M  V30 35 1 12 32
M  V30 36 1 13 33
M  V30 37 1 14 34
M  V30 38 1 17 35
M  V30 39 1 21 36
M  V30 40 1 22 37
M  V30 41 1 24 38
M  V30 42 1 25 39
M  V30 43 1 26 40
M  V30 44 1 27 41
M  V30 END BOND
M  V30 END CTAB
M  END
>  <Molecule Name>
TZWAPMQFRGZIFN-PHOVEKIENA-N

>  <hs_clash>
0.0

>  <hs_total>
97.21620706143004

>  <Total Molweight>
398.466

>  <cLogP>
3.0029

>  <H-Acceptors>
7

>  <H-Donors>
3

>  <Polar Surface Area>
144.06

>  <Non-H Atoms>
27

>  <sp3-Atoms>
2

$$$$
MZWCVBFANHIPTJ-MMEBMOISNA-O
Actelion Java MolfileCreator 2.0

  0  0  0  0  0  0              0 V3000
M  V30 BEGIN CTAB
M  V30 COUNTS 48 51 0 0 0
M  V30 BEGIN ATOM
M  V30 1 S 33.1708 10.7629 64.7408 0
M  V30 2 O 34.2974 10.3364 63.9345 0
M  V30 3 O 33.6435 11.3355 65.9808 0
M  V30 4 N 32.2508 11.9749 63.8273 0
M  V30 5 C 32.1942 9.3804 65.0704 0
M  V30 6 C 31.3936 12.7791 64.6632 0
M  V30 7 C 31.1462 9.0094 64.1816 0
M  V30 8 C 32.4362 8.622 66.2233 0
M  V30 9 C 30.3595 7.8738 64.4615 0
M  V30 10 C 31.6496 7.4866 66.503 0
M  V30 11 C 30.6127 7.088 65.6416 0
M  V30 12 N 29.859 5.9355 65.9327 0
M  V30 13 C 28.8362 5.3726 65.237 0
M  V30 14 N 28.1459 6.1538 64.3526 0
M  V30 15 N 28.4364 4.0852 65.3542 0
M  V30 16 C 27.0936 5.7267 63.5991 0
M  V30 17 C 27.401 3.5611 64.6507 0
M  V30 18 C 26.4952 6.7191 62.6852 0
M  V30 19 C 26.6936 4.3879 63.7364 0
M  V30 20 N 25.2884 6.8221 61.983 0
M  V30 21 C 27.1967 7.8817 62.3867 0
M  V30 22 C 25.3651 8.0407 61.297 0
M  V30 23 C 24.073 5.9494 61.8341 0
M  V30 24 N 26.4827 8.6482 61.5459 0 CHG=1
M  V30 25 C 24.3125 8.6353 60.3754 0
M  V30 26 C 23.4308 5.4555 63.1386 0
M  V30 27 C 23.8076 4.4837 62.0152 0
M  V30 28 H 32.1254 11.9143 62.8372 0
M  V30 29 H 30.8528 13.5079 64.0414 0
M  V30 30 H 30.6707 12.1297 65.1791 0
M  V30 31 H 32.0029 13.3129 65.4073 0
M  V30 32 H 30.9542 9.5964 63.2957 0
M  V30 33 H 33.2281 8.9084 66.8997 0
M  V30 34 H 29.5633 7.592 63.7883 0
M  V30 35 H 31.847 6.912 67.3961 0
M  V30 36 H 30.4066 5.2462 66.4068 0
M  V30 37 H 27.1175 2.5276 64.7846 0
M  V30 38 H 25.8683 3.9955 63.1608 0
M  V30 39 H 28.173 8.1324 62.7746 0
M  V30 40 H 23.3222 6.4158 61.179 0
M  V30 41 H 26.7642 9.5337 61.1761 0
M  V30 42 H 23.3769 8.7852 60.9348 0
M  V30 43 H 24.6672 9.6023 59.9892 0
M  V30 44 H 24.1311 7.9489 59.5354 0
M  V30 45 H 24.004 5.4666 64.0773 0
M  V30 46 H 22.3734 5.672 63.3523 0
M  V30 47 H 23.0177 3.9932 61.4275 0
M  V30 48 H 24.6484 3.788 62.1524 0
M  V30 END ATOM
M  V30 BEGIN BOND
M  V30 1 2 1 2
M  V30 2 2 1 3
M  V30 3 1 1 4
M  V30 4 1 1 5
M  V30 5 1 4 6
M  V30 6 2 5 7
M  V30 7 1 5 8
M  V30 8 1 7 9
M  V30 9 2 8 10
M  V30 10 2 9 11
M  V30 11 1 11 12
M  V30 12 1 12 13
M  V30 13 2 13 14
M  V30 14 1 13 15
M  V30 15 1 14 16
M  V30 16 2 15 17
M  V30 17 1 16 18
M  V30 18 2 16 19
M  V30 19 1 18 20
M  V30 20 2 18 21
M  V30 21 1 20 22
M  V30 22 1 20 23
M  V30 23 1 21 24
M  V30 24 1 22 25
M  V30 25 1 23 26
M  V30 26 1 23 27
M  V30 27 1 10 11
M  V30 28 1 17 19
M  V30 29 2 22 24
M  V30 30 1 26 27
M  V30 31 1 4 28
M  V30 32 1 6 29
M  V30 33 1 6 30
M  V30 34 1 6 31
M  V30 35 1 7 32
M  V30 36 1 8 33
M  V30 37 1 9 34
M  V30 38 1 10 35
M  V30 39 1 12 36
M  V30 40 1 17 37
M  V30 41 1 19 38
M  V30 42 1 21 39
M  V30 43 1 23 40
M  V30 44 1 24 41
M  V30 45 1 25 42
M  V30 46 1 25 43
M  V30 47 1 25 44
M  V30 48 1 26 45
M  V30 49 1 26 46
M  V30 50 1 27 47
M  V30 51 1 27 48
M  V30 END BOND
M  V30 END CTAB
M  END
>  <Molecule Name>
MZWCVBFANHIPTJ-MMEBMOISNA-O

>  <hs_clash>
5.0

>  <hs_total>
97.15048637458432

>  <Total Molweight>
385.471

>  <cLogP>
0.3293

>  <H-Acceptors>
8

>  <H-Donors>
3

>  <Polar Surface Area>
111.43

>  <Non-H Atoms>
27

>  <sp3-Atoms>
6

$$$$
RGVVHQNJKUNSFQ-ZSRKCBEINA-O
Actelion Java MolfileCreator 2.0

  0  0  0  0  0  0              0 V3000
M  V30 BEGIN CTAB
M  V30 COUNTS 38 40 0 0 0
M  V30 BEGIN ATOM
M  V30 1 S 31.5131 10.7869 64.5512 0
M  V30 2 O 31.8086 11.3307 65.8474 0
M  V30 3 O 32.7337 10.385 63.9054 0
M  V30 4 N 30.7879 11.8983 63.6571 0
M  V30 5 C 30.45 9.3941 64.7176 0
M  V30 6 C 30.4799 8.5799 65.858 0
M  V30 7 C 29.5737 9.1036 63.6838 0
M  V30 8 C 29.632 7.474 65.9404 0
M  V30 9 C 31.4205 8.8956 67.0182 0
M  V30 10 C 28.7285 8.0117 63.7766 0
M  V30 11 C 28.7604 7.1926 64.8955 0
M  V30 12 F 30.9558 9.9372 67.6998 0
M  V30 13 F 32.6324 9.1793 66.555 0
M  V30 14 F 31.4928 7.8467 67.8287 0
M  V30 15 C 27.8218 6.0279 64.9459 0
M  V30 16 O 26.7164 5.9076 64.1586 0
M  V30 17 C 27.9338 4.8742 65.7126 0
M  V30 18 C 26.1073 4.7167 64.4167 0
M  V30 19 C 26.855 4.0539 65.3852 0
M  V30 20 C 24.877 4.2384 63.7448 0
M  V30 21 C 24.3389 4.9874 62.7601 0
M  V30 22 S 24.7789 6.5573 62.4212 0
M  V30 23 C 23.3564 4.5498 61.8751 0
M  V30 24 C 23.6815 6.6499 61.175 0
M  V30 25 O 22.8653 3.4259 61.8851 0
M  V30 26 N 23.0055 5.5083 61.0067 0
M  V30 27 N 23.5099 7.6834 60.457 0 CHG=1
M  V30 28 H 29.7981 11.8369 63.7863 0
M  V30 29 H 31.0079 11.7473 62.6936 0
M  V30 30 H 29.5503 9.7304 62.8047 0
M  V30 31 H 29.6531 6.8394 66.814 0
M  V30 32 H 28.0399 7.7964 62.973 0
M  V30 33 H 28.7114 4.6542 66.4288 0
M  V30 34 H 26.6393 3.083 65.8059 0
M  V30 35 H 24.4183 3.306 64.0383 0
M  V30 36 H 22.3071 5.3825 60.3024 0
M  V30 37 H 24.0523 8.5063 60.6271 0
M  V30 38 H 22.8323 7.6746 59.7218 0
M  V30 END ATOM
M  V30 BEGIN BOND
M  V30 1 2 1 2
M  V30 2 2 1 3
M  V30 3 1 1 4
M  V30 4 1 1 5
M  V30 5 2 5 6
M  V30 6 1 5 7
M  V30 7 1 6 8
M  V30 8 1 6 9
M  V30 9 2 7 10
M  V30 10 2 8 11
M  V30 11 1 9 12
M  V30 12 1 9 13
M  V30 13 1 9 14
M  V30 14 1 11 15
M  V30 15 1 15 16
M  V30 16 2 15 17
M  V30 17 1 16 18
M  V30 18 1 17 19
M  V30 19 1 18 20
M  V30 20 2 20 21
M  V30 21 1 21 22
M  V30 22 1 21 23
M  V30 23 1 22 24
M  V30 24 2 23 25
M  V30 25 1 23 26
M  V30 26 2 24 27
M  V30 27 1 10 11
M  V30 28 2 18 19
M  V30 29 1 24 26
M  V30 30 1 4 28
M  V30 31 1 4 29
M  V30 32 1 7 30
M  V30 33 1 8 31
M  V30 34 1 10 32
M  V30 35 1 17 33
M  V30 36 1 19 34
M  V30 37 1 20 35
M  V30 38 1 26 36
M  V30 39 1 27 37
M  V30 40 1 27 38
M  V30 END BOND
M  V30 END CTAB
M  END
>  <Molecule Name>
RGVVHQNJKUNSFQ-ZSRKCBEINA-O

>  <hs_clash>
0.0

>  <hs_total>
96.91339069634985

>  <Total Molweight>
418.395

>  <cLogP>
2.224

>  <H-Acceptors>
7

>  <H-Donors>
3

>  <Polar Surface Area>
161.67

>  <Non-H Atoms>
27

>  <sp3-Atoms>
3

$$$$
OUSFTKFNBAZUKL-VYJIMDAQNA-O
Actelion Java MolfileCreator 2.0

  0  0  0  0  0  0              0 V3000
M  V30 BEGIN CTAB
M  V30 COUNTS 50 52 0 0 0
M  V30 BEGIN ATOM
M  V30 1 S 27.0202 6.2216 64.4482 0
M  V30 2 C 28.4343 5.5668 65.2184 0
M  V30 3 C 26.3258 4.6231 64.4695 0
M  V30 4 N 28.4045 4.2816 65.4487 0
M  V30 5 N 29.5472 6.3098 65.5427 0
M  V30 6 S 24.6361 4.3987 64.053 0
M  V30 7 C 27.2148 3.7572 65.0022 0
M  V30 8 C 29.7175 7.6276 65.2383 0
M  V30 9 C 24.507 4.239 62.2655 0
M  V30 10 O 28.8583 8.2895 64.6635 0
M  V30 11 C 31.0436 8.2077 65.6232 0
M  V30 12 C 24.1222 5.5659 61.759 0
M  V30 13 C 30.9289 8.959 66.9618 0
M  V30 14 C 31.5588 9.152 64.5215 0
M  V30 15 O 25.1277 6.4868 61.7354 0
M  V30 16 N 22.9515 6.0817 61.3441 0
M  V30 17 C 32.2247 9.6758 67.2877 0
M  V30 18 C 32.8499 9.8255 64.9467 0
M  V30 19 C 24.5764 7.6575 61.2645 0
M  V30 20 C 23.2308 7.3938 61.0381 0
M  V30 21 N 32.5747 10.586 66.1865 0 CHG=1
M  V30 22 C 25.5566 8.8112 61.0753 0
M  V30 23 C 26.902 8.2736 60.5798 0
M  V30 24 C 25.7637 9.5531 62.3967 0
M  V30 25 C 25.0319 9.8014 60.0344 0
M  V30 26 H 30.2839 5.8492 66.0374 0
M  V30 27 H 27.0006 2.7013 65.0745 0
M  V30 28 H 23.7405 3.4948 62.0042 0
M  V30 29 H 25.4743 3.9346 61.8398 0
M  V30 30 H 31.7684 7.3897 65.7458 0
M  V30 31 H 30.1156 9.6968 66.8934 0
M  V30 32 H 30.7037 8.2388 67.7621 0
M  V30 33 H 31.7398 8.5713 63.6054 0
M  V30 34 H 30.799 9.9227 64.3233 0
M  V30 35 H 32.1002 10.2543 68.2152 0
M  V30 36 H 33.028 8.9369 67.4216 0
M  V30 37 H 33.623 9.0665 65.1367 0
M  V30 38 H 33.1934 10.5092 64.1565 0
M  V30 39 H 22.5107 8.1127 60.6757 0
M  V30 40 H 31.8129 11.2136 66.0248 0
M  V30 41 H 33.389 11.1086 66.4389 0
M  V30 42 H 26.7564 7.7396 59.6296 0
M  V30 43 H 27.5977 9.1118 60.4267 0
M  V30 44 H 27.3188 7.5834 61.3283 0
M  V30 45 H 26.1412 8.8526 63.1561 0
M  V30 46 H 26.4925 10.3642 62.2518 0
M  V30 47 H 24.8059 9.977 62.7335 0
M  V30 48 H 24.878 9.281 59.0778 0
M  V30 49 H 24.0768 10.2244 60.3797 0
M  V30 50 H 25.7633 10.6115 59.8978 0
M  V30 END ATOM
M  V30 BEGIN BOND
M  V30 1 1 1 2
M  V30 2 1 1 3
M  V30 3 2 2 4
M  V30 4 1 2 5
M  V30 5 1 3 6
M  V30 6 2 3 7
M  V30 7 1 5 8
M  V30 8 1 6 9
M  V30 9 2 8 10
M  V30 10 1 8 11
M  V30 11 1 9 12
M  V30 12 1 11 13
M  V30 13 1 11 14
M  V30 14 1 12 15
M  V30 15 2 12 16
M  V30 16 1 13 17
M  V30 17 1 14 18
M  V30 18 1 15 19
M  V30 19 1 16 20
M  V30 20 1 17 21
M  V30 21 1 19 22
M  V30 22 1 22 23
M  V30 23 1 22 24
M  V30 24 1 22 25
M  V30 25 1 4 7
M  V30 26 1 18 21
M  V30 27 2 19 20
M  V30 28 1 5 26
M  V30 29 1 7 27
M  V30 30 1 9 28
M  V30 31 1 9 29
M  V30 32 1 11 30
M  V30 33 1 13 31
M  V30 34 1 13 32
M  V30 35 1 14 33
M  V30 36 1 14 34
M  V30 37 1 17 35
M  V30 38 1 17 36
M  V30 39 1 18 37
M  V30 40 1 18 38
M  V30 41 1 20 39
M  V30 42 1 21 40
M  V30 43 1 21 41
M  V30 44 1 23 42
M  V30 45 1 23 43
M  V30 46 1 23 44
M  V30 47 1 24 45
M  V30 48 1 24 46
M  V30 49 1 24 47
M  V30 50 1 25 48
M  V30 51 1 25 49
M  V30 52 1 25 50
M  V30 END BOND
M  V30 END CTAB
M  END
>  <Molecule Name>
OUSFTKFNBAZUKL-VYJIMDAQNA-O

>  <hs_clash>
0.0

>  <hs_total>
96.68770669196536

>  <Total Molweight>
381.544

>  <cLogP>
3.028

>  <H-Acceptors>
6

>  <H-Donors>
2

>  <Polar Surface Area>
138.17

>  <Non-H Atoms>
25

>  <sp3-Atoms>
12

$$$$
NYEMVPGQXLAKEH-QRLNQVTDNA-N
Actelion Java MolfileCreator 2.0

  0  0  0  0  0  0              0 V3000
M  V30 BEGIN CTAB
M  V30 COUNTS 31 32 0 0 0
M  V30 BEGIN ATOM
M  V30 1 S 33.1751 10.5774 64.6982 0
M  V30 2 O 34.3526 10.0818 63.7369 0
M  V30 3 O 33.7864 11.0884 66.1219 0
M  V30 4 N 32.3986 11.7184 63.9764 0
M  V30 5 C 32.2197 9.3193 64.9519 0
M  V30 6 C 31.1466 9.0244 64.0045 0
M  V30 7 C 32.4268 8.4644 66.1291 0
M  V30 8 C 30.3077 7.9038 64.2329 0
M  V30 9 C 31.587 7.3301 66.3661 0
M  V30 10 C 30.5022 7.0097 65.4328 0
M  V30 11 N 29.7311 5.9094 65.7227 0
M  V30 12 C 28.6531 5.3973 65.042 0
M  V30 13 S 27.6114 6.2771 63.9973 0
M  V30 14 N 28.3367 4.1102 65.1751 0
M  V30 15 C 26.7108 4.8443 63.7308 0
M  V30 16 C 27.2454 3.7885 64.443 0
M  V30 17 C 25.5139 4.7761 62.8434 0
M  V30 18 N 26.7578 2.5359 64.4322 0
M  V30 19 O 24.8907 3.7183 62.6897 0
M  V30 20 N 25.1612 5.9037 62.2246 0
M  V30 21 H 31.4437 11.7124 64.2736 0
M  V30 22 H 32.4403 11.5765 62.9874 0
M  V30 23 H 30.9939 9.6534 63.1398 0
M  V30 24 H 33.2214 8.6951 66.8234 0
M  V30 25 H 29.5136 7.6861 63.5342 0
M  V30 26 H 31.7524 6.709 67.234 0
M  V30 27 H 30.2644 5.1896 66.1671 0
M  V30 28 H 27.3185 1.9544 65.0216 0
M  V30 29 H 25.9548 2.4955 63.8373 0
M  V30 30 H 24.37 5.9121 61.6127 0
M  V30 31 H 25.6876 6.7411 62.3722 0
M  V30 END ATOM
M  V30 BEGIN BOND
M  V30 1 2 1 2
M  V30 2 2 1 3
M  V30 3 1 1 4
M  V30 4 1 1 5
M  V30 5 2 5 6
M  V30 6 1 5 7
M  V30 7 1 6 8
M  V30 8 2 7 9
M  V30 9 2 8 10
M  V30 10 1 10 11
M  V30 11 1 11 12
M  V30 12 1 12 13
M  V30 13 2 12 14
M  V30 14 1 13 15
M  V30 15 1 14 16
M  V30 16 1 15 17
M  V30 17 1 16 18
M  V30 18 2 17 19
M  V30 19 1 17 20
M  V30 20 1 9 10
M  V30 21 2 15 16
M  V30 22 1 4 21
M  V30 23 1 4 22
M  V30 24 1 6 23
M  V30 25 1 7 24
M  V30 26 1 8 25
M  V30 27 1 9 26
M  V30 28 1 11 27
M  V30 29 1 18 28
M  V30 30 1 18 29
M  V30 31 1 20 30
M  V30 32 1 20 31
M  V30 END BOND
M  V30 END CTAB
M  END
>  <Molecule Name>
NYEMVPGQXLAKEH-QRLNQVTDNA-N

>  <hs_clash>
2.0

>  <hs_total>
96.3336976701785

>  <Total Molweight>
313.361

>  <cLogP>
0.4229

>  <H-Acceptors>
8

>  <H-Donors>
4

>  <Polar Surface Area>
190.81

>  <Non-H Atoms>
20

>  <sp3-Atoms>
1

$$$$
UFUGKBGESCNADR-DXAUXPAJNA-N
Actelion Java MolfileCreator 2.0

  0  0  0  0  0  0              0 V3000
M  V30 BEGIN CTAB
M  V30 COUNTS 52 55 0 0 0
M  V30 BEGIN ATOM
M  V30 1 S 25.534 7.5421 63.2103 0
M  V30 2 C 24.0594 8.1115 62.8648 0
M  V30 3 C 25.1735 6.5119 64.4012 0
M  V30 4 N 23.1081 7.4982 63.7088 0
M  V30 5 N 23.7613 9.0847 61.8597 0
M  V30 6 C 26.2043 5.686 65.0997 0
M  V30 7 C 23.757 6.5349 64.6331 0
M  V30 8 C 24.6749 9.3259 60.776 0
M  V30 9 N 27.2089 6.3044 65.7441 0
M  V30 10 C 26.1762 4.2834 65.0813 0
M  V30 11 C 23.0088 5.7315 65.6485 0
M  V30 12 C 28.1671 5.6132 66.3689 0
M  V30 13 C 25.1024 3.5206 64.3847 0
M  V30 14 C 27.184 3.5895 65.7466 0
M  V30 15 N 28.1491 4.2742 66.3702 0
M  V30 16 N 29.2389 6.2581 67.0609 0
M  V30 17 N 24.2825 2.9346 63.857 0
M  V30 18 C 29.6941 7.5921 66.8274 0
M  V30 19 C 30.4059 8.2442 67.8306 0
M  V30 20 C 29.4617 8.2494 65.6285 0
M  V30 21 C 30.8796 9.5326 67.6464 0
M  V30 22 C 29.9175 9.5437 65.4342 0
M  V30 23 C 31.6259 10.1854 68.7631 0
M  V30 24 C 30.6182 10.1878 66.4428 0
M  V30 25 O 31.0378 10.3605 69.8214 0
M  V30 26 N 32.9881 10.6097 68.6702 0
M  V30 27 C 33.6768 10.4278 67.5115 0
M  V30 28 C 33.5202 11.1831 69.7841 0
M  V30 29 C 35.0449 11.0181 67.6126 0
M  V30 30 C 34.9677 10.843 69.9875 0
M  V30 31 O 35.7159 10.5268 68.7898 0
M  V30 32 H 22.7923 9.1828 61.6324 0
M  V30 33 H 24.2646 10.1049 60.1165 0
M  V30 34 H 25.6421 9.6595 61.1797 0
M  V30 35 H 24.8167 8.3978 60.2033 0
M  V30 36 H 22.2666 5.0976 65.1412 0
M  V30 37 H 23.7135 5.0967 66.2056 0
M  V30 38 H 22.4952 6.4092 66.3469 0
M  V30 39 H 27.1863 2.5098 65.7586 0
M  V30 40 H 29.9695 5.6316 67.3318 0
M  V30 41 H 30.5916 7.738 68.7664 0
M  V30 42 H 28.9208 7.7481 64.8395 0
M  V30 43 H 29.7272 10.0497 64.4993 0
M  V30 44 H 30.9631 11.2009 66.2958 0
M  V30 45 H 33.1335 10.9149 66.6882 0
M  V30 46 H 33.7624 9.3505 67.3076 0
M  V30 47 H 33.4266 12.2756 69.6942 0
M  V30 48 H 32.9528 10.8377 70.661 0
M  V30 49 H 34.9639 12.1135 67.6719 0
M  V30 50 H 35.6262 10.741 66.7211 0
M  V30 51 H 35.0184 9.9716 70.6571 0
M  V30 52 H 35.4519 11.7047 70.4701 0
M  V30 END ATOM
M  V30 BEGIN BOND
M  V30 1 1 1 2
M  V30 2 1 1 3
M  V30 3 2 2 4
M  V30 4 1 2 5
M  V30 5 1 3 6
M  V30 6 2 3 7
M  V30 7 1 5 8
M  V30 8 2 6 9
M  V30 9 1 6 10
M  V30 10 1 7 11
M  V30 11 1 9 12
M  V30 12 1 10 13
M  V30 13 2 10 14
M  V30 14 2 12 15
M  V30 15 1 12 16
M  V30 16 3 13 17
M  V30 17 1 16 18
M  V30 18 2 18 19
M  V30 19 1 18 20
M  V30 20 1 19 21
M  V30 21 2 20 22
M  V30 22 1 21 23
M  V30 23 2 21 24
M  V30 24 2 23 25
M  V30 25 1 23 26
M  V30 26 1 26 27
M  V30 27 1 26 28
M  V30 28 1 27 29
M  V30 29 1 28 30
M  V30 30 1 29 31
M  V30 31 1 4 7
M  V30 32 1 14 15
M  V30 33 1 22 24
M  V30 34 1 30 31
M  V30 35 1 5 32
M  V30 36 1 8 33
M  V30 37 1 8 34
M  V30 38 1 8 35
M  V30 39 1 11 36
M  V30 40 1 11 37
M  V30 41 1 11 38
M  V30 42 1 14 39
M  V30 43 1 16 40
M  V30 44 1 19 41
M  V30 45 1 20 42
M  V30 46 1 22 43
M  V30 47 1 24 44
M  V30 48 1 27 45
M  V30 49 1 27 46
M  V30 50 1 28 47
M  V30 51 1 28 48
M  V30 52 1 29 49
M  V30 53 1 29 50
M  V30 54 1 30 51
M  V30 55 1 30 52
M  V30 END BOND
M  V30 END CTAB
M  END
>  <Molecule Name>
UFUGKBGESCNADR-DXAUXPAJNA-N

>  <hs_clash>
1.0

>  <hs_total>
95.69442508084161

>  <Total Molweight>
435.511

>  <cLogP>
3.1657

>  <H-Acceptors>
9

>  <H-Donors>
2

>  <Polar Surface Area>
144.3

>  <Non-H Atoms>
31

>  <sp3-Atoms>
7

$$$$
NYRVLHGVDPPWJS-VUEOKQGPNA-N
Actelion Java MolfileCreator 2.0

  0  0  0  0  0  0              0 V3000
M  V30 BEGIN CTAB
M  V30 COUNTS 38 40 0 0 0
M  V30 BEGIN ATOM
M  V30 1 S 25.7467 8.082 63.4016 0
M  V30 2 C 24.807 7.915 61.9676 0
M  V30 3 C 25.288 6.4825 63.9834 0
M  V30 4 N 23.7845 7.1067 62.2829 0
M  V30 5 N 25.2238 8.3344 60.6561 0
M  V30 6 C 26.2796 5.5009 64.5376 0
M  V30 7 C 23.9727 6.2724 63.3933 0
M  V30 8 C 24.094 8.4245 59.7815 0
M  V30 9 N 27.3789 6.0134 65.1723 0
M  V30 10 C 26.1582 4.0975 64.459 0
M  V30 11 C 22.8767 5.4783 64.0342 0
M  V30 12 C 28.4122 5.3526 65.7612 0
M  V30 13 C 25.0492 3.3654 63.7857 0
M  V30 14 C 27.2332 3.4226 65.0781 0
M  V30 15 N 28.2676 4.0447 65.6735 0
M  V30 16 N 29.5464 6.0048 66.352 0
M  V30 17 N 24.208 2.7864 63.2802 0
M  V30 18 C 30.044 7.2525 65.8134 0
M  V30 19 C 29.5255 7.7853 64.6788 0
M  V30 20 C 31.1472 7.9778 66.5317 0
M  V30 21 C 30.0522 9.1004 64.1401 0
M  V30 22 C 31.6219 9.172 66.0394 0
M  V30 23 O 29.5306 9.6418 62.9885 0
M  V30 24 C 31.0515 9.7496 64.7971 0
M  V30 25 H 26.1055 8.0299 60.2963 0
M  V30 26 H 24.4269 8.7456 58.7836 0
M  V30 27 H 23.6088 7.4401 59.7071 0
M  V30 28 H 23.3774 9.1569 60.1822 0
M  V30 29 H 22.4487 4.7824 63.2978 0
M  V30 30 H 23.284 4.9095 64.8829 0
M  V30 31 H 22.0915 6.1603 64.3932 0
M  V30 32 H 27.2249 2.3427 65.0733 0
M  V30 33 H 30.1393 5.476 66.9588 0
M  V30 34 H 28.7331 7.2698 64.1565 0
M  V30 35 H 31.5676 7.5615 67.435 0
M  V30 36 H 32.413 9.6914 66.5599 0
M  V30 37 H 30.2268 10.0471 62.4851 0
M  V30 38 H 31.4299 10.6859 64.4142 0
M  V30 END ATOM
M  V30 BEGIN BOND
M  V30 1 1 1 2
M  V30 2 1 1 3
M  V30 3 2 2 4
M  V30 4 1 2 5
M  V30 5 1 3 6
M  V30 6 2 3 7
M  V30 7 1 5 8
M  V30 8 2 6 9
M  V30 9 1 6 10
M  V30 10 1 7 11
M  V30 11 1 9 12
M  V30 12 1 10 13
M  V30 13 2 10 14
M  V30 14 2 12 15
M  V30 15 1 12 16
M  V30 16 3 13 17
M  V30 17 1 16 18
M  V30 18 2 18 19
M  V30 19 1 18 20
M  V30 20 1 19 21
M  V30 21 2 20 22
M  V30 22 1 21 23
M  V30 23 2 21 24
M  V30 24 1 4 7
M  V30 25 1 14 15
M  V30 26 1 22 24
M  V30 27 1 5 25
M  V30 28 1 8 26
M  V30 29 1 8 27
M  V30 30 1 8 28
M  V30 31 1 11 29
M  V30 32 1 11 30
M  V30 33 1 11 31
M  V30 34 1 14 32
M  V30 35 1 16 33
M  V30 36 1 19 34
M  V30 37 1 20 35
M  V30 38 1 22 36
M  V30 39 1 23 37
M  V30 40 1 24 38
M  V30 END BOND
M  V30 END CTAB
M  END
>  <Molecule Name>
NYRVLHGVDPPWJS-VUEOKQGPNA-N

>  <hs_clash>
0.0

>  <hs_total>
95.68743193710591

>  <Total Molweight>
338.394

>  <cLogP>
3.1457

>  <H-Acceptors>
7

>  <H-Donors>
3

>  <Polar Surface Area>
134.99

>  <Non-H Atoms>
24

>  <sp3-Atoms>
3

$$$$
KMEQMLWVPHUCFT-XWKXFZRBNA-N
Actelion Java MolfileCreator 2.0

  0  0  0  0  0  0              0 V3000
M  V30 BEGIN CTAB
M  V30 COUNTS 28 29 0 0 0
M  V30 BEGIN ATOM
M  V30 1 S 27.3603 7.931 62.6399 0
M  V30 2 C 26.8467 6.2999 62.9514 0
M  V30 3 C 26.1219 8.096 61.4784 0
M  V30 4 C 27.606 5.5632 63.9168 0
M  V30 5 C 25.7659 6.0044 62.1197 0
M  V30 6 N 25.3518 7.0254 61.2948 0
M  V30 7 C 25.9515 9.4022 60.7312 0
M  V30 8 N 28.4815 6.2231 64.6861 0
M  V30 9 C 27.4633 4.1616 64.0944 0
M  V30 10 C 24.9861 4.6963 62.0421 0
M  V30 11 C 29.1796 5.5604 65.5845 0
M  V30 12 C 28.2739 3.5421 65.0656 0
M  V30 13 N 29.1267 4.2511 65.7931 0
M  V30 14 N 30.0892 6.3797 66.3336 0
M  V30 15 C 31.1197 7.2381 65.8614 0
M  V30 16 N 31.8514 7.9004 66.6573 0
M  V30 17 O 31.8202 7.9266 67.97 0
M  V30 18 H 26.8713 9.6276 60.1717 0
M  V30 19 H 25.1078 9.3166 60.0306 0
M  V30 20 H 25.7513 10.2118 61.4488 0
M  V30 21 H 26.7588 3.5918 63.5068 0
M  V30 22 H 24.1798 4.7931 61.3001 0
M  V30 23 H 25.6635 3.8832 61.7438 0
M  V30 24 H 24.5521 4.4694 63.0272 0
M  V30 25 H 28.2 2.4759 65.2198 0
M  V30 26 H 30.3227 5.9672 67.2143 0
M  V30 27 H 31.7988 6.6089 65.2679 0
M  V30 28 H 30.6326 7.9738 65.2043 0
M  V30 END ATOM
M  V30 BEGIN BOND
M  V30 1 1 1 2
M  V30 2 1 1 3
M  V30 3 1 2 4
M  V30 4 2 2 5
M  V30 5 2 3 6
M  V30 6 1 3 7
M  V30 7 2 4 8
M  V30 8 1 4 9
M  V30 9 1 5 10
M  V30 10 1 8 11
M  V30 11 2 9 12
M  V30 12 2 11 13
M  V30 13 1 11 14
M  V30 14 1 14 15
M  V30 15 1 15 16
M  V30 16 2 16 17
M  V30 17 1 5 6
M  V30 18 1 12 13
M  V30 19 1 7 18
M  V30 20 1 7 19
M  V30 21 1 7 20
M  V30 22 1 9 21
M  V30 23 1 10 22
M  V30 24 1 10 23
M  V30 25 1 10 24
M  V30 26 1 12 25
M  V30 27 1 14 26
M  V30 28 1 15 27
M  V30 29 1 15 28
M  V30 END BOND
M  V30 END CTAB
M  END
>  <Molecule Name>
KMEQMLWVPHUCFT-XWKXFZRBNA-N

>  <hs_clash>
0.0

>  <hs_total>
95.54664261677777

>  <Total Molweight>
249.297

>  <cLogP>
0.9031

>  <H-Acceptors>
6

>  <H-Donors>
1

>  <Polar Surface Area>
108.37

>  <Non-H Atoms>
17

>  <sp3-Atoms>
3

$$$$
BTIHMVBBUGXLCJ-OVVPYVOINA-N
Actelion Java MolfileCreator 2.0

  0  0  0  0  0  0              0 V3000
M  V30 BEGIN CTAB
M  V30 COUNTS 52 54 0 0 0
M  V30 BEGIN ATOM
M  V30 1 O 26.3798 11.4267 61.007 0
M  V30 2 C 25.6577 10.5557 61.9141 0
M  V30 3 C 25.9143 9.0696 61.6587 0 CFG=1
M  V30 4 N 27.2544 8.6637 62.2909 0
M  V30 5 C 25.9423 8.7955 60.1374 0
M  V30 6 C 27.6038 7.741 63.1979 0
M  V30 7 C 25.2306 7.5174 59.6567 0
M  V30 8 N 28.7509 7.7157 63.9273 0
M  V30 9 N 26.7002 6.7781 63.3365 0
M  V30 10 C 29.0705 6.7404 64.8347 0
M  V30 11 C 26.9598 5.7867 64.215 0
M  V30 12 N 30.2377 6.826 65.4455 0
M  V30 13 C 28.0978 5.7085 64.974 0
M  V30 14 N 26.1721 4.692 64.4649 0
M  V30 15 C 30.9966 8.0564 65.15 0
M  V30 16 N 28.0048 4.5371 65.7158 0
M  V30 17 C 26.8657 3.9664 65.3978 0
M  V30 18 C 24.893 4.4403 63.7855 0
M  V30 19 C 31.3895 8.6792 66.5037 0
M  V30 20 C 25.1431 4.2392 62.2725 0
M  V30 21 C 23.9474 5.6452 64.0216 0
M  V30 22 C 31.438 10.0626 66.6362 0
M  V30 23 C 31.709 7.8416 67.5656 0
M  V30 24 C 31.7918 10.6314 67.8542 0
M  V30 25 C 32.0664 8.3903 68.7926 0
M  V30 26 C 32.09 9.775 68.9128 0
M  V30 27 H 26.0631 12.3171 61.103 0
M  V30 28 H 25.9654 10.7914 62.9438 0
M  V30 29 H 24.5806 10.7489 61.8003 0
M  V30 30 H 25.1063 8.4786 62.1149 0
M  V30 31 H 27.9647 9.3547 62.1562 0
M  V30 32 H 25.468 9.6515 59.6349 0
M  V30 33 H 26.9961 8.7274 59.8297 0
M  V30 34 H 25.3206 7.4362 58.5636 0
M  V30 35 H 25.6951 6.6395 60.1293 0
M  V30 36 H 24.1669 7.5635 59.9344 0
M  V30 37 H 30.7533 5.9816 65.5897 0
M  V30 38 H 31.8989 7.8134 64.5698 0
M  V30 39 H 30.3712 8.7583 64.5787 0
M  V30 40 H 26.5171 3.0359 65.8211 0
M  V30 41 H 24.4231 3.5333 64.1936 0
M  V30 42 H 24.1858 4.0508 61.7641 0
M  V30 43 H 25.6083 5.1441 61.8544 0
M  V30 44 H 25.8131 3.3799 62.1229 0
M  V30 45 H 22.9874 5.4635 63.5156 0
M  V30 46 H 23.7749 5.77 65.101 0
M  V30 47 H 24.4082 6.5581 63.6162 0
M  V30 48 H 31.2005 10.695 65.7934 0
M  V30 49 H 31.6795 6.7696 67.4385 0
M  V30 50 H 31.8343 11.7037 67.9768 0
M  V30 51 H 32.319 7.757 69.6304 0
M  V30 52 H 32.3507 10.2063 69.8682 0
M  V30 END ATOM
M  V30 BEGIN BOND
M  V30 1 1 1 2
M  V30 2 1 2 3
M  V30 3 1 3 4
M  V30 4 1 3 5
M  V30 5 1 4 6
M  V30 6 1 5 7
M  V30 7 2 6 8
M  V30 8 1 6 9
M  V30 9 1 8 10
M  V30 10 2 9 11
M  V30 11 1 10 12
M  V30 12 2 10 13
M  V30 13 1 11 14
M  V30 14 1 12 15
M  V30 15 1 13 16
M  V30 16 1 14 17
M  V30 17 1 14 18
M  V30 18 1 15 19
M  V30 19 1 18 20
M  V30 20 1 18 21
M  V30 21 2 19 22
M  V30 22 1 19 23
M  V30 23 1 22 24
M  V30 24 2 23 25
M  V30 25 2 24 26
M  V30 26 1 11 13
M  V30 27 2 16 17
M  V30 28 1 25 26
M  V30 29 1 1 27
M  V30 30 1 2 28
M  V30 31 1 2 29
M  V30 32 1 3 30
M  V30 33 1 4 31
M  V30 34 1 5 32
M  V30 35 1 5 33
M  V30 36 1 7 34
M  V30 37 1 7 35
M  V30 38 1 7 36
M  V30 39 1 12 37
M  V30 40 1 15 38
M  V30 41 1 15 39
M  V30 42 1 17 40
M  V30 43 1 18 41
M  V30 44 1 20 42
M  V30 45 1 20 43
M  V30 46 1 20 44
M  V30 47 1 21 45
M  V30 48 1 21 46
M  V30 49 1 21 47
M  V30 50 1 22 48
M  V30 51 1 23 49
M  V30 52 1 24 50
M  V30 53 1 25 51
M  V30 54 1 26 52
M  V30 END BOND
M  V30 BEGIN COLLECTION
M  V30 MDLV30/STERAC1 ATOMS=(1 3)
M  V30 END COLLECTION
M  V30 END CTAB
M  END
>  <Molecule Name>
BTIHMVBBUGXLCJ-OVVPYVOINA-N

>  <hs_clash>
0.0

>  <hs_total>
95.3959241245584

>  <Total Molweight>
354.456

>  <cLogP>
2.5814

>  <H-Acceptors>
7

>  <H-Donors>
3

>  <Polar Surface Area>
87.89

>  <Non-H Atoms>
26

>  <sp3-Atoms>
9

$$$$
GXZJLHQMNOLIAB-VCHYOVAHNA-N
Actelion Java MolfileCreator 2.0

  0  0  0  0  0  0              0 V3000
M  V30 BEGIN CTAB
M  V30 COUNTS 38 40 0 0 0
M  V30 BEGIN ATOM
M  V30 1 S 33.5189 10.9062 65.0304 0
M  V30 2 O 34.4277 10.4458 64.0342 0
M  V30 3 O 34.0221 11.0666 66.3618 0
M  V30 4 N 32.9586 12.406 64.6312 0
M  V30 5 C 32.1809 9.772 65.0779 0
M  V30 6 C 32.275 12.838 63.4206 0
M  V30 7 C 31.3354 9.6695 63.8836 0
M  V30 8 C 32.0678 8.7905 66.1886 0
M  V30 9 C 30.3484 8.6158 63.7947 0
M  V30 10 C 31.0688 7.7172 66.1085 0
M  V30 11 C 30.1966 7.6272 64.9177 0
M  V30 12 N 29.304 6.6147 64.9399 0
M  V30 13 C 28.0252 6.5886 64.2135 0
M  V30 14 C 27.2575 5.4987 64.103 0
M  V30 15 C 27.4823 4.1761 64.7763 0
M  V30 16 C 26.1063 5.3039 63.2673 0
M  V30 17 O 28.445 3.9418 65.5191 0
M  V30 18 N 26.5139 3.3139 64.3766 0
M  V30 19 C 25.6866 3.9269 63.464 0
M  V30 20 C 25.3862 6.2186 62.327 0
M  V30 21 C 24.5307 3.3918 62.7197 0
M  V30 22 C 24.2074 5.691 61.5855 0
M  V30 23 C 23.7676 4.2911 61.8032 0
M  V30 24 H 32.6488 12.9142 65.4351 0
M  V30 25 H 32.0443 13.9113 63.4922 0
M  V30 26 H 32.9235 12.6598 62.5504 0
M  V30 27 H 31.3408 12.2693 63.3045 0
M  V30 28 H 31.4489 10.3769 63.0754 0
M  V30 29 H 32.7163 8.8665 67.0489 0
M  V30 30 H 29.7195 8.5388 62.9202 0
M  V30 31 H 30.9719 7.0011 66.911 0
M  V30 32 H 27.6869 7.5001 63.7433 0
M  V30 33 H 29.0055 4.7077 65.5632 0
M  V30 34 H 26.4163 2.372 64.6979 0
M  V30 35 H 25.7137 7.2384 62.1893 0
M  V30 36 H 24.2389 2.3588 62.8366 0
M  V30 37 H 23.6746 6.3252 60.8923 0
M  V30 38 H 22.8895 3.9196 61.2956 0
M  V30 END ATOM
M  V30 BEGIN BOND
M  V30 1 2 1 2
M  V30 2 2 1 3
M  V30 3 1 1 4
M  V30 4 1 1 5
M  V30 5 1 4 6
M  V30 6 2 5 7
M  V30 7 1 5 8
M  V30 8 1 7 9
M  V30 9 2 8 10
M  V30 10 2 9 11
M  V30 11 1 11 12
M  V30 12 2 12 13
M  V30 13 1 13 14
M  V30 14 2 14 15
M  V30 15 1 14 16
M  V30 16 1 15 17
M  V30 17 1 15 18
M  V30 18 2 16 19
M  V30 19 1 16 20
M  V30 20 1 19 21
M  V30 21 2 20 22
M  V30 22 2 21 23
M  V30 23 1 10 11
M  V30 24 1 18 19
M  V30 25 1 22 23
M  V30 26 1 4 24
M  V30 27 1 6 25
M  V30 28 1 6 26
M  V30 29 1 6 27
M  V30 30 1 7 28
M  V30 31 1 8 29
M  V30 32 1 9 30
M  V30 33 1 10 31
M  V30 34 1 13 32
M  V30 35 1 17 33
M  V30 36 1 18 34
M  V30 37 1 20 35
M  V30 38 1 21 36
M  V30 39 1 22 37
M  V30 40 1 23 38
M  V30 END BOND
M  V30 END CTAB
M  END
>  <Molecule Name>
GXZJLHQMNOLIAB-VCHYOVAHNA-N

>  <hs_clash>
23.0

>  <hs_total>
94.81173939913258

>  <Total Molweight>
329.379

>  <cLogP>
2.2039

>  <H-Acceptors>
6

>  <H-Donors>
3

>  <Polar Surface Area>
102.93

>  <Non-H Atoms>
23

>  <sp3-Atoms>
3

$$$$
WUGJIPFLBOATGL-UHFFFAOYNA-N
Actelion Java MolfileCreator 2.0

  0  0  0  0  0  0              0 V3000
M  V30 BEGIN CTAB
M  V30 COUNTS 41 44 0 0 0
M  V30 BEGIN ATOM
M  V30 1 F 22.4293 6.6659 62.2245 0
M  V30 2 C 23.377 7.0973 61.3913 0
M  V30 3 C 24.5757 6.3319 61.1894 0
M  V30 4 C 23.1326 8.3525 60.7385 0
M  V30 5 C 25.554 6.9175 60.2362 0
M  V30 6 C 24.7504 4.9942 61.9301 0
M  V30 7 C 24.1045 8.8816 59.829 0
M  V30 8 F 26.7222 6.3243 59.9481 0
M  V30 9 C 25.3217 8.1727 59.5793 0
M  V30 10 O 24.0311 4.0032 61.6455 0
M  V30 11 C 25.8086 4.8873 63.0203 0
M  V30 12 C 26.669 5.9644 63.3964 0
M  V30 13 C 25.9907 3.6506 63.7305 0
M  V30 14 N 27.6118 5.875 64.3869 0
M  V30 15 C 26.9717 3.5295 64.7707 0
M  V30 16 C 28.569 6.7602 64.919 0
M  V30 17 C 27.781 4.6273 65.0789 0
M  V30 18 C 29.2288 6.0232 65.9324 0
M  V30 19 C 28.9084 8.1726 64.6449 0
M  V30 20 N 28.7587 4.7656 66.0035 0
M  V30 21 N 30.3042 6.5268 66.7865 0
M  V30 22 O 29.8298 8.6766 65.3222 0
M  V30 23 C 28.2674 9.027 63.6144 0
M  V30 24 C 26.9987 9.6666 63.8929 0
M  V30 25 C 28.8983 9.2219 62.3374 0
M  V30 26 C 26.3719 10.5009 62.8933 0
M  V30 27 C 28.2656 10.0542 61.3507 0
M  V30 28 C 27.0149 10.6908 61.6313 0
M  V30 29 H 22.2194 8.8958 60.9326 0
M  V30 30 H 23.9174 9.8206 59.3293 0
M  V30 31 H 26.0592 8.5782 58.9028 0
M  V30 32 H 26.5706 6.9023 62.8703 0
M  V30 33 H 25.3782 2.7982 63.4767 0
M  V30 34 H 27.0838 2.6004 65.3097 0
M  V30 35 H 31.0702 6.8254 66.2177 0
M  V30 36 H 30.6098 5.8001 67.4019 0
M  V30 37 H 26.5195 9.5198 64.8498 0
M  V30 38 H 29.8428 8.7454 62.1206 0
M  V30 39 H 25.4247 10.9776 63.0985 0
M  V30 40 H 28.7375 10.2002 60.3905 0
M  V30 41 H 26.5534 11.3193 60.8838 0
M  V30 END ATOM
M  V30 BEGIN BOND
M  V30 1 1 1 2
M  V30 2 2 2 3
M  V30 3 1 2 4
M  V30 4 1 3 5
M  V30 5 1 3 6
M  V30 6 2 4 7
M  V30 7 1 5 8
M  V30 8 2 5 9
M  V30 9 2 6 10
M  V30 10 1 6 11
M  V30 11 2 11 12
M  V30 12 1 11 13
M  V30 13 1 12 14
M  V30 14 2 13 15
M  V30 15 1 14 16
M  V30 16 1 14 17
M  V30 17 2 16 18
M  V30 18 1 16 19
M  V30 19 2 17 20
M  V30 20 1 18 21
M  V30 21 2 19 22
M  V30 22 1 19 23
M  V30 23 2 23 24
M  V30 24 1 23 25
M  V30 25 1 24 26
M  V30 26 2 25 27
M  V30 27 2 26 28
M  V30 28 1 7 9
M  V30 29 1 15 17
M  V30 30 1 18 20
M  V30 31 1 27 28
M  V30 32 1 4 29
M  V30 33 1 7 30
M  V30 34 1 9 31
M  V30 35 1 12 32
M  V30 36 1 13 33
M  V30 37 1 15 34
M  V30 38 1 21 35
M  V30 39 1 21 36
M  V30 40 1 24 37
M  V30 41 1 25 38
M  V30 42 1 26 39
M  V30 43 1 27 40
M  V30 44 1 28 41
M  V30 END BOND
M  V30 END CTAB
M  END
>  <Molecule Name>
WUGJIPFLBOATGL-UHFFFAOYNA-N

>  <hs_clash>
0.0

>  <hs_total>
93.71731141049518

>  <Total Molweight>
377.349

>  <cLogP>
2.7918

>  <H-Acceptors>
5

>  <H-Donors>
1

>  <Polar Surface Area>
77.46

>  <Non-H Atoms>
28

>  <sp3-Atoms>
0

$$$$
RUUOIINPNMNPIU-GJCIOOLPNA-N
Actelion Java MolfileCreator 2.0

  0  0  0  0  0  0              0 V3000
M  V30 BEGIN CTAB
M  V30 COUNTS 49 52 0 0 0
M  V30 BEGIN ATOM
M  V30 1 O 32.5383 11.1811 66.4633 0
M  V30 2 C 31.5707 10.8767 65.7707 0
M  V30 3 N 30.957 11.8025 65.0197 0
M  V30 4 C 31.0496 9.4548 65.7778 0
M  V30 5 C 30.8053 8.8128 66.9976 0
M  V30 6 C 30.7941 8.7566 64.5982 0
M  V30 7 C 30.3102 7.506 67.0525 0
M  V30 8 C 30.3161 7.4405 64.6538 0
M  V30 9 C 30.0613 6.8019 65.8801 0
M  V30 10 N 29.5724 5.5306 65.9575 0
M  V30 11 C 28.3537 5.2381 65.4217 0
M  V30 12 N 27.6319 6.2608 64.9133 0
M  V30 13 N 27.8693 3.9668 65.3916 0
M  V30 14 C 26.4374 6.091 64.3403 0
M  V30 15 C 26.6568 3.7163 64.8498 0
M  V30 16 O 25.755 7.1428 63.8253 0
M  V30 17 C 25.8551 4.742 64.2847 0
M  V30 18 N 26.0026 2.5154 64.7207 0
M  V30 19 C 26.3261 8.4549 63.7653 0
M  V30 20 N 24.6842 4.1871 63.7871 0
M  V30 21 C 24.8289 2.8567 64.0781 0
M  V30 22 C 25.5439 9.2332 62.7094 0
M  V30 23 C 25.8244 10.7218 62.8479 0
M  V30 24 C 25.9087 8.674 61.3397 0
M  V30 25 C 25.1949 11.463 61.6939 0
M  V30 26 C 25.4235 9.5253 60.1801 0
M  V30 27 C 25.8415 10.9715 60.4092 0
M  V30 28 H 31.2862 12.7467 65.0218 0
M  V30 29 H 30.1696 11.5488 64.4578 0
M  V30 30 H 31.0037 9.3399 67.9193 0
M  V30 31 H 30.9641 9.23 63.6427 0
M  V30 32 H 30.1206 7.0422 68.0092 0
M  V30 33 H 30.1388 6.9043 63.7334 0
M  V30 34 H 29.9761 4.8965 66.6169 0
M  V30 35 H 26.3038 1.6106 65.0203 0
M  V30 36 H 27.3868 8.3928 63.4807 0
M  V30 37 H 26.2372 8.9511 64.7432 0
M  V30 38 H 24.0769 2.1251 63.8228 0
M  V30 39 H 24.4701 9.0645 62.8787 0
M  V30 40 H 25.3996 11.0884 63.7943 0
M  V30 41 H 26.9111 10.892 62.844 0
M  V30 42 H 27.0041 8.5959 61.2782 0
M  V30 43 H 25.4635 7.6727 61.2449 0
M  V30 44 H 24.1135 11.263 61.6675 0
M  V30 45 H 25.365 12.5439 61.8073 0
M  V30 46 H 24.3272 9.4658 60.1136 0
M  V30 47 H 25.8683 9.1581 59.2435 0
M  V30 48 H 25.5077 11.5924 59.5648 0
M  V30 49 H 26.9361 11.0317 60.4985 0
M  V30 END ATOM
M  V30 BEGIN BOND
M  V30 1 2 1 2
M  V30 2 1 2 3
M  V30 3 1 2 4
M  V30 4 2 4 5
M  V30 5 1 4 6
M  V30 6 1 5 7
M  V30 7 2 6 8
M  V30 8 2 7 9
M  V30 9 1 9 10
M  V30 10 1 10 11
M  V30 11 2 11 12
M  V30 12 1 11 13
M  V30 13 1 12 14
M  V30 14 2 13 15
M  V30 15 1 14 16
M  V30 16 2 14 17
M  V30 17 1 15 18
M  V30 18 1 16 19
M  V30 19 1 17 20
M  V30 20 1 18 21
M  V30 21 1 19 22
M  V30 22 1 22 23
M  V30 23 1 22 24
M  V30 24 1 23 25
M  V30 25 1 24 26
M  V30 26 1 25 27
M  V30 27 1 8 9
M  V30 28 1 15 17
M  V30 29 2 20 21
M  V30 30 1 26 27
M  V30 31 1 3 28
M  V30 32 1 3 29
M  V30 33 1 5 30
M  V30 34 1 6 31
M  V30 35 1 7 32
M  V30 36 1 8 33
M  V30 37 1 10 34
M  V30 38 1 18 35
M  V30 39 1 19 36
M  V30 40 1 19 37
M  V30 41 1 21 38
M  V30 42 1 22 39
M  V30 43 1 23 40
M  V30 44 1 23 41
M  V30 45 1 24 42
M  V30 46 1 24 43
M  V30 47 1 25 44
M  V30 48 1 25 45
M  V30 49 1 26 46
M  V30 50 1 26 47
M  V30 51 1 27 48
M  V30 52 1 27 49
M  V30 END BOND
M  V30 END CTAB
M  END
>  <Molecule Name>
RUUOIINPNMNPIU-GJCIOOLPNA-N

>  <hs_clash>
0.0

>  <hs_total>
93.61154764610616

>  <Total Molweight>
366.424

>  <cLogP>
2.9979

>  <H-Acceptors>
8

>  <H-Donors>
3

>  <Polar Surface Area>
118.81

>  <Non-H Atoms>
27

>  <sp3-Atoms>
8

$$$$
RZUOCXOYPYGSKL-YESIIZMGNA-N
Actelion Java MolfileCreator 2.0

  0  0  0  0  0  0              0 V3000
M  V30 BEGIN CTAB
M  V30 COUNTS 49 52 0 0 0
M  V30 BEGIN ATOM
M  V30 1 Cl 18.8656 11.0778 60.361 0
M  V30 2 C 20.4876 10.4857 60.1818 0
M  V30 3 C 21.4949 10.8436 61.072 0
M  V30 4 C 20.7743 9.654 59.1211 0
M  V30 5 F 21.1859 11.6594 62.1032 0
M  V30 6 C 22.7949 10.3581 60.9205 0
M  V30 7 C 22.0544 9.1717 58.9836 0
M  V30 8 C 23.0577 9.5146 59.8688 0
M  V30 9 C 24.4075 8.9079 59.5922 0 CFG=1
M  V30 10 N 24.9467 8.1424 60.7238 0
M  V30 11 C 25.4969 9.8584 59.0096 0
M  V30 12 C 24.4603 6.9079 60.9523 0
M  V30 13 C 25.948 8.6711 61.4558 0
M  V30 14 O 25.1734 10.1249 57.62 0
M  V30 15 O 23.5509 6.4696 60.2528 0
M  V30 16 C 25.0293 6.0922 61.9512 0
M  V30 17 C 26.5431 7.9111 62.4033 0
M  V30 18 C 26.0956 6.5897 62.6603 0
M  V30 19 C 26.8417 5.7867 63.6679 0
M  V30 20 N 27.9208 6.3917 64.1691 0
M  V30 21 C 26.5182 4.4459 64.003 0
M  V30 22 C 28.6859 5.7398 65.0534 0
M  V30 23 C 27.3732 3.7818 64.8834 0
M  V30 24 N 28.4326 4.4921 65.4307 0
M  V30 25 N 29.7839 6.3696 65.5464 0
M  V30 26 C 30.3897 7.5324 65.0896 0
M  V30 27 N 31.2034 8.3297 65.8646 0
M  V30 28 C 30.3467 8.1078 63.8452 0
M  V30 29 N 31.6467 9.417 65.0667 0
M  V30 30 C 31.5597 8.1546 67.2788 0
M  V30 31 C 31.1142 9.2883 63.8713 0
M  V30 32 H 20.0066 9.3862 58.4104 0
M  V30 33 H 23.5747 10.639 61.6131 0
M  V30 34 H 22.281 8.5079 58.1625 0
M  V30 35 H 24.2307 8.1695 58.7965 0
M  V30 36 H 25.5094 10.8013 59.5762 0
M  V30 37 H 26.4837 9.3775 59.0763 0
M  V30 38 H 26.2706 9.6882 61.2878 0
M  V30 39 H 25.2186 9.3166 57.1235 0
M  V30 40 H 24.6385 5.1058 62.1532 0
M  V30 41 H 27.3683 8.3149 62.9708 0
M  V30 42 H 25.6454 3.9594 63.5931 0
M  V30 43 H 27.2147 2.7431 65.1324 0
M  V30 44 H 30.4454 5.7264 65.932 0
M  V30 45 H 29.814 7.7207 62.9894 0
M  V30 46 H 32.0697 7.1892 67.412 0
M  V30 47 H 32.2293 8.9693 67.5918 0
M  V30 48 H 30.6467 8.1746 67.8923 0
M  V30 49 H 31.2435 9.9737 63.0468 0
M  V30 END ATOM
M  V30 BEGIN BOND
M  V30 1 1 1 2
M  V30 2 2 2 3
M  V30 3 1 2 4
M  V30 4 1 3 5
M  V30 5 1 3 6
M  V30 6 2 4 7
M  V30 7 2 6 8
M  V30 8 1 8 9
M  V30 9 1 9 10
M  V30 10 1 9 11
M  V30 11 1 10 12
M  V30 12 1 10 13
M  V30 13 1 11 14
M  V30 14 2 12 15
M  V30 15 1 12 16
M  V30 16 2 13 17
M  V30 17 2 16 18
M  V30 18 1 18 19
M  V30 19 2 19 20
M  V30 20 1 19 21
M  V30 21 1 20 22
M  V30 22 2 21 23
M  V30 23 2 22 24
M  V30 24 1 22 25
M  V30 25 1 25 26
M  V30 26 1 26 27
M  V30 27 2 26 28
M  V30 28 1 27 29
M  V30 29 1 27 30
M  V30 30 1 28 31
M  V30 31 1 7 8
M  V30 32 1 17 18
M  V30 33 1 23 24
M  V30 34 2 29 31
M  V30 35 1 4 32
M  V30 36 1 6 33
M  V30 37 1 7 34
M  V30 38 1 9 35
M  V30 39 1 11 36
M  V30 40 1 11 37
M  V30 41 1 13 38
M  V30 42 1 14 39
M  V30 43 1 16 40
M  V30 44 1 17 41
M  V30 45 1 21 42
M  V30 46 1 23 43
M  V30 47 1 25 44
M  V30 48 1 28 45
M  V30 49 1 30 46
M  V30 50 1 30 47
M  V30 51 1 30 48
M  V30 52 1 31 49
M  V30 END BOND
M  V30 BEGIN COLLECTION
M  V30 MDLV30/STERAC1 ATOMS=(1 9)
M  V30 END COLLECTION
M  V30 END CTAB
M  END
>  <Molecule Name>
RZUOCXOYPYGSKL-YESIIZMGNA-N

>  <hs_clash>
1.0

>  <hs_total>
92.95758647017357

>  <Total Molweight>
440.865

>  <cLogP>
1.4328

>  <H-Acceptors>
8

>  <H-Donors>
2

>  <Polar Surface Area>
96.17

>  <Non-H Atoms>
31

>  <sp3-Atoms>
4

$$$$
UHCCZPSJWZLRKI-JGEMXZPPNA-N
Actelion Java MolfileCreator 2.0

  0  0  0  0  0  0              0 V3000
M  V30 BEGIN CTAB
M  V30 COUNTS 40 42 0 0 0
M  V30 BEGIN ATOM
M  V30 1 S 33.6046 10.8785 64.9576 0
M  V30 2 O 34.3468 10.8658 66.2623 0
M  V30 3 O 34.4587 10.5237 63.7871 0
M  V30 4 N 32.7934 12.2451 64.6696 0
M  V30 5 C 32.3549 9.684 65.0369 0
M  V30 6 C 31.9834 12.8119 65.5872 0
M  V30 7 C 31.528 9.5401 63.9163 0
M  V30 8 C 32.2075 8.8497 66.159 0
M  V30 9 N 31.2663 13.8787 65.2531 0
M  V30 10 N 31.9009 12.3617 66.8435 0
M  V30 11 C 30.5311 8.5477 63.8851 0
M  V30 12 C 31.1968 7.8783 66.1169 0
M  V30 13 C 30.3291 7.7388 65.0234 0
M  V30 14 N 29.3944 6.7682 65.0267 0
M  V30 15 C 28.3064 6.7542 64.2366 0
M  V30 16 C 27.4218 5.6682 64.2012 0
M  V30 17 C 27.6428 4.4508 64.8499 0
M  V30 18 C 26.3394 5.4537 63.3189 0
M  V30 19 O 28.5348 4.2893 65.6947 0
M  V30 20 N 26.7293 3.5484 64.4768 0
M  V30 21 C 25.9094 4.1342 63.5451 0
M  V30 22 C 25.6301 6.2892 62.4417 0
M  V30 23 C 24.8289 3.6123 62.8288 0
M  V30 24 C 24.5494 5.7574 61.7226 0
M  V30 25 C 24.1074 4.4369 61.9399 0
M  V30 26 H 32.4961 12.3624 63.7221 0
M  V30 27 H 31.6566 10.1967 63.0686 0
M  V30 28 H 32.8491 8.953 67.022 0
M  V30 29 H 30.7297 14.2258 66.0226 0
M  V30 30 H 31.3104 12.8267 67.5035 0
M  V30 31 H 32.4296 11.5606 67.1232 0
M  V30 32 H 29.9276 8.4069 63.0004 0
M  V30 33 H 31.0817 7.2119 66.959 0
M  V30 34 H 28.1074 7.6095 63.6075 0
M  V30 35 H 29.1351 5.0251 65.6666 0
M  V30 36 H 26.6561 2.611 64.8172 0
M  V30 37 H 25.9119 7.3251 62.3224 0
M  V30 38 H 24.5458 2.578 62.9562 0
M  V30 39 H 24.0469 6.371 60.9896 0
M  V30 40 H 23.2301 4.0619 61.4335 0
M  V30 END ATOM
M  V30 BEGIN BOND
M  V30 1 2 1 2
M  V30 2 2 1 3
M  V30 3 1 1 4
M  V30 4 1 1 5
M  V30 5 1 4 6
M  V30 6 2 5 7
M  V30 7 1 5 8
M  V30 8 2 6 9
M  V30 9 1 6 10
M  V30 10 1 7 11
M  V30 11 2 8 12
M  V30 12 2 11 13
M  V30 13 1 13 14
M  V30 14 2 14 15
M  V30 15 1 15 16
M  V30 16 2 16 17
M  V30 17 1 16 18
M  V30 18 1 17 19
M  V30 19 1 17 20
M  V30 20 2 18 21
M  V30 21 1 18 22
M  V30 22 1 21 23
M  V30 23 2 22 24
M  V30 24 2 23 25
M  V30 25 1 12 13
M  V30 26 1 20 21
M  V30 27 1 24 25
M  V30 28 1 4 26
M  V30 29 1 7 27
M  V30 30 1 8 28
M  V30 31 1 9 29
M  V30 32 1 10 30
M  V30 33 1 10 31
M  V30 34 1 11 32
M  V30 35 1 12 33
M  V30 36 1 15 34
M  V30 37 1 19 35
M  V30 38 1 20 36
M  V30 39 1 22 37
M  V30 40 1 23 38
M  V30 41 1 24 39
M  V30 42 1 25 40
M  V30 END BOND
M  V30 END CTAB
M  END
>  <Molecule Name>
UHCCZPSJWZLRKI-JGEMXZPPNA-N

>  <hs_clash>
0.0

>  <hs_total>
91.99392857365999

>  <Total Molweight>
357.393

>  <cLogP>
1.2391

>  <H-Acceptors>
8

>  <H-Donors>
5

>  <Polar Surface Area>
152.8

>  <Non-H Atoms>
25

>  <sp3-Atoms>
2

$$$$
WWJOMFPVPCGAKO-FEWWYCIKNA-N
Actelion Java MolfileCreator 2.0

  0  0  0  0  0  0              0 V3000
M  V30 BEGIN CTAB
M  V30 COUNTS 41 42 0 0 0
M  V30 BEGIN ATOM
M  V30 1 O 29.5023 7.3914 64.5786 0
M  V30 2 C 29.6 6.3186 65.1569 0
M  V30 3 N 30.5461 6.1015 66.1078 0
M  V30 4 C 28.71 5.1393 64.8972 0
M  V30 5 C 31.5051 7.15 66.4949 0
M  V30 6 N 28.7723 3.9429 65.4936 0
M  V30 7 C 27.6516 5.1354 63.9537 0
M  V30 8 N 27.7778 3.1863 64.9464 0
M  V30 9 C 27.0639 3.8659 64.0041 0
M  V30 10 C 27.1718 6.2303 63.0169 0
M  V30 11 C 25.8821 3.4509 63.1358 0
M  V30 12 C 25.7067 5.9867 62.5578 0 CFG=2
M  V30 13 C 25.5912 4.5128 62.0161 0
M  V30 14 C 25.1669 7.1069 61.5481 0
M  V30 15 C 23.6147 6.8944 61.4057 0
M  V30 16 C 25.8803 7.0391 60.1641 0
M  V30 17 C 25.4037 8.5391 62.1185 0
M  V30 18 C 22.8139 7.8557 60.4987 0
M  V30 19 H 30.5922 5.2086 66.5554 0
M  V30 20 H 32.1768 6.7634 67.2754 0
M  V30 21 H 32.0967 7.4477 65.6167 0
M  V30 22 H 30.9579 8.0228 66.8816 0
M  V30 23 H 27.593 2.2388 65.207 0
M  V30 24 H 27.8245 6.2544 62.1319 0
M  V30 25 H 27.2266 7.1971 63.5392 0
M  V30 26 H 26.1083 2.4844 62.6623 0
M  V30 27 H 24.9899 3.3481 63.7713 0
M  V30 28 H 25.0739 6.0454 63.4561 0
M  V30 29 H 26.3163 4.3765 61.2003 0
M  V30 30 H 24.5728 4.3542 61.632 0
M  V30 31 H 23.4615 5.8776 61.0149 0
M  V30 32 H 23.1837 6.9681 62.4151 0
M  V30 33 H 25.4793 7.8239 59.5056 0
M  V30 34 H 26.9609 7.1925 60.301 0
M  V30 35 H 25.7042 6.0534 59.7091 0
M  V30 36 H 25.0238 9.286 61.4055 0
M  V30 37 H 24.8731 8.6449 63.0768 0
M  V30 38 H 26.4805 8.6977 62.2764 0
M  V30 39 H 21.7512 7.571 60.5096 0
M  V30 40 H 22.9211 8.8854 60.8707 0
M  V30 41 H 23.1991 7.7952 59.4703 0
M  V30 END ATOM
M  V30 BEGIN BOND
M  V30 1 2 1 2
M  V30 2 1 2 3
M  V30 3 1 2 4
M  V30 4 1 3 5
M  V30 5 2 4 6
M  V30 6 1 4 7
M  V30 7 1 6 8
M  V30 8 2 7 9
M  V30 9 1 7 10
M  V30 10 1 9 11
M  V30 11 1 10 12
M  V30 12 1 11 13
M  V30 13 1 12 14
M  V30 14 1 14 15
M  V30 15 1 14 16
M  V30 16 1 14 17
M  V30 17 1 15 18
M  V30 18 1 8 9
M  V30 19 1 12 13
M  V30 20 1 3 19
M  V30 21 1 5 20
M  V30 22 1 5 21
M  V30 23 1 5 22
M  V30 24 1 8 23
M  V30 25 1 10 24
M  V30 26 1 10 25
M  V30 27 1 11 26
M  V30 28 1 11 27
M  V30 29 1 12 28
M  V30 30 1 13 29
M  V30 31 1 13 30
M  V30 32 1 15 31
M  V30 33 1 15 32
M  V30 34 1 16 33
M  V30 35 1 16 34
M  V30 36 1 16 35
M  V30 37 1 17 36
M  V30 38 1 17 37
M  V30 39 1 17 38
M  V30 40 1 18 39
M  V30 41 1 18 40
M  V30 42 1 18 41
M  V30 END BOND
M  V30 BEGIN COLLECTION
M  V30 MDLV30/STERAC1 ATOMS=(1 12)
M  V30 END COLLECTION
M  V30 END CTAB
M  END
>  <Molecule Name>
WWJOMFPVPCGAKO-FEWWYCIKNA-N

>  <hs_clash>
0.0

>  <hs_total>
90.66090861088006

>  <Total Molweight>
249.357

>  <cLogP>
2.219

>  <H-Acceptors>
4

>  <H-Donors>
2

>  <Polar Surface Area>
57.78

>  <Non-H Atoms>
18

>  <sp3-Atoms>
10

$$$$
AOPRHEOJTUWSAR-IFGPOQCVNA-N
Actelion Java MolfileCreator 2.0

  0  0  0  0  0  0              0 V3000
M  V30 BEGIN CTAB
M  V30 COUNTS 52 54 0 0 0
M  V30 BEGIN ATOM
M  V30 1 O 25.2267 7.0737 60.725 0
M  V30 2 C 26.465 7.6622 60.3104 0
M  V30 3 C 26.5885 9.0237 60.9842 0 CFG=1
M  V30 4 N 27.4087 8.9714 62.183 0
M  V30 5 C 25.2005 9.5501 61.3331 0
M  V30 6 C 27.5953 7.874 62.9619 0
M  V30 7 C 25.303 10.6943 62.3147 0
M  V30 8 N 28.7465 7.8827 63.7021 0
M  V30 9 N 26.6822 6.8471 63.019 0
M  V30 10 C 29.1113 6.8865 64.5303 0
M  V30 11 C 26.9561 5.7867 63.843 0
M  V30 12 N 30.2639 6.9365 65.2376 0
M  V30 13 C 28.1861 5.736 64.6442 0
M  V30 14 C 26.2565 4.5113 64.1637 0
M  V30 15 C 31.2581 7.9664 64.9704 0
M  V30 16 N 28.1749 4.5828 65.346 0
M  V30 17 N 27.0147 3.8408 65.0478 0
M  V30 18 C 24.945 4.1681 63.5426 0
M  V30 19 C 31.2606 8.9994 66.0778 0
M  V30 20 C 25.093 3.9773 62.029 0
M  V30 21 C 23.8721 5.2089 63.8714 0
M  V30 22 C 30.9557 10.3227 65.7868 0
M  V30 23 C 31.5571 8.6294 67.3861 0
M  V30 24 C 30.9521 11.2745 66.7968 0
M  V30 25 C 31.5587 9.5793 68.3972 0
M  V30 26 C 31.2535 10.9004 68.1001 0
M  V30 27 H 24.7777 6.7137 59.9695 0
M  V30 28 H 26.4724 7.7846 59.2174 0
M  V30 29 H 27.3038 7.0183 60.6132 0
M  V30 30 H 27.047 9.7197 60.2667 0
M  V30 31 H 28.2079 9.5712 62.1438 0
M  V30 32 H 24.7054 9.9024 60.4162 0
M  V30 33 H 24.6076 8.7396 61.7819 0
M  V30 34 H 24.2948 11.0626 62.5562 0
M  V30 35 H 25.7955 10.3455 63.2343 0
M  V30 36 H 25.8932 11.5082 61.8688 0
M  V30 37 H 30.5423 6.1267 65.7541 0
M  V30 38 H 32.2527 7.5016 64.9064 0
M  V30 39 H 31.0214 8.4595 64.016 0
M  V30 40 H 26.7887 2.9475 65.4364 0
M  V30 41 H 24.6122 3.2082 63.9641 0
M  V30 42 H 24.115 3.7255 61.5934 0
M  V30 43 H 25.4665 4.9082 61.5774 0
M  V30 44 H 25.804 3.1622 61.8304 0
M  V30 45 H 22.9228 4.9206 63.3965 0
M  V30 46 H 23.735 5.2626 64.9617 0
M  V30 47 H 24.1873 6.1925 63.4929 0
M  V30 48 H 30.7206 10.6115 64.7731 0
M  V30 49 H 31.7866 7.5994 67.6152 0
M  V30 50 H 30.7155 12.3038 66.5702 0
M  V30 51 H 31.7959 9.2922 69.411 0
M  V30 52 H 31.2505 11.6412 68.8862 0
M  V30 END ATOM
M  V30 BEGIN BOND
M  V30 1 1 1 2
M  V30 2 1 2 3
M  V30 3 1 3 4
M  V30 4 1 3 5
M  V30 5 1 4 6
M  V30 6 1 5 7
M  V30 7 1 6 8
M  V30 8 2 6 9
M  V30 9 2 8 10
M  V30 10 1 9 11
M  V30 11 1 10 12
M  V30 12 1 10 13
M  V30 13 2 11 14
M  V30 14 1 12 15
M  V30 15 2 13 16
M  V30 16 1 14 17
M  V30 17 1 14 18
M  V30 18 1 15 19
M  V30 19 1 18 20
M  V30 20 1 18 21
M  V30 21 2 19 22
M  V30 22 1 19 23
M  V30 23 1 22 24
M  V30 24 2 23 25
M  V30 25 2 24 26
M  V30 26 1 11 13
M  V30 27 1 16 17
M  V30 28 1 25 26
M  V30 29 1 1 27
M  V30 30 1 2 28
M  V30 31 1 2 29
M  V30 32 1 3 30
M  V30 33 1 4 31
M  V30 34 1 5 32
M  V30 35 1 5 33
M  V30 36 1 7 34
M  V30 37 1 7 35
M  V30 38 1 7 36
M  V30 39 1 12 37
M  V30 40 1 15 38
M  V30 41 1 15 39
M  V30 42 1 17 40
M  V30 43 1 18 41
M  V30 44 1 20 42
M  V30 45 1 20 43
M  V30 46 1 20 44
M  V30 47 1 21 45
M  V30 48 1 21 46
M  V30 49 1 21 47
M  V30 50 1 22 48
M  V30 51 1 23 49
M  V30 52 1 24 50
M  V30 53 1 25 51
M  V30 54 1 26 52
M  V30 END BOND
M  V30 BEGIN COLLECTION
M  V30 MDLV30/STERAC1 ATOMS=(1 3)
M  V30 END COLLECTION
M  V30 END CTAB
M  END
>  <Molecule Name>
AOPRHEOJTUWSAR-IFGPOQCVNA-N

>  <hs_clash>
0.0

>  <hs_total>
90.24139673521404

>  <Total Molweight>
354.456

>  <cLogP>
2.3967

>  <H-Acceptors>
7

>  <H-Donors>
4

>  <Polar Surface Area>
98.75

>  <Non-H Atoms>
26

>  <sp3-Atoms>
9

$$$$
GXROIULFOOIUKH-SXZVMFKQNA-O
Actelion Java MolfileCreator 2.0

  0  0  0  0  0  0              0 V3000
M  V30 BEGIN CTAB
M  V30 COUNTS 30 32 0 0 0
M  V30 BEGIN ATOM
M  V30 1 Br 30.4033 8.3672 64.4135 0
M  V30 2 C 28.9661 7.2017 64.3579 0
M  V30 3 N 28.9977 6.0696 65.0639 0
M  V30 4 C 27.8 7.3155 63.6594 0
M  V30 5 C 27.852 5.3866 64.8526 0
M  V30 6 C 27.0474 6.1454 63.9475 0
M  V30 7 C 27.6937 4.0953 65.5353 0
M  V30 8 C 25.7014 5.6926 63.3331 0 CFG=1
M  V30 9 O 28.3724 3.8975 66.5517 0
M  V30 10 N 26.8152 3.1432 65.0516 0
M  V30 11 C 25.1008 6.4053 62.2897 0
M  V30 12 C 25.0277 4.4342 63.8729 0
M  V30 13 C 25.9417 3.2226 63.8683 0
M  V30 14 N 25.574 7.5658 61.6593 0
M  V30 15 C 23.8083 6.1584 61.5319 0
M  V30 16 C 24.7309 7.9057 60.667 0
M  V30 17 O 23.0028 5.2393 61.746 0
M  V30 18 N 23.6673 7.0999 60.5687 0
M  V30 19 N 24.9637 8.9471 59.8915 0 CHG=1
M  V30 20 H 29.7487 5.7746 65.6546 0
M  V30 21 H 27.5074 8.1318 63.0158 0
M  V30 22 H 25.1565 6.3033 64.0684 0
M  V30 23 H 26.7668 2.2909 65.5722 0
M  V30 24 H 24.1488 4.2125 63.2496 0
M  V30 25 H 24.7047 4.6257 64.9069 0
M  V30 26 H 26.575 3.2675 62.9702 0
M  V30 27 H 25.3191 2.3166 63.8334 0
M  V30 28 H 22.9162 7.1775 59.9132 0
M  V30 29 H 25.7815 9.5044 60.0346 0
M  V30 30 H 24.322 9.1796 59.1606 0
M  V30 END ATOM
M  V30 BEGIN BOND
M  V30 1 1 1 2
M  V30 2 1 2 3
M  V30 3 2 2 4
M  V30 4 1 3 5
M  V30 5 1 4 6
M  V30 6 1 5 7
M  V30 7 1 6 8
M  V30 8 2 7 9
M  V30 9 1 7 10
M  V30 10 1 8 11
M  V30 11 1 8 12
M  V30 12 1 10 13
M  V30 13 2 11 14
M  V30 14 1 11 15
M  V30 15 1 14 16
M  V30 16 2 15 17
M  V30 17 1 15 18
M  V30 18 2 16 19
M  V30 19 2 5 6
M  V30 20 1 12 13
M  V30 21 1 16 18
M  V30 22 1 3 20
M  V30 23 1 4 21
M  V30 24 1 8 22
M  V30 25 1 10 23
M  V30 26 1 12 24
M  V30 27 1 12 25
M  V30 28 1 13 26
M  V30 29 1 13 27
M  V30 30 1 18 28
M  V30 31 1 19 29
M  V30 32 1 19 30
M  V30 END BOND
M  V30 BEGIN COLLECTION
M  V30 MDLV30/STERAC1 ATOMS=(1 8)
M  V30 END COLLECTION
M  V30 END CTAB
M  END
>  <Molecule Name>
GXROIULFOOIUKH-SXZVMFKQNA-O

>  <hs_clash>
0.0

>  <hs_total>
89.98537719687158

>  <Total Molweight>
325.145

>  <cLogP>
0.3812

>  <H-Acceptors>
7

>  <H-Donors>
4

>  <Polar Surface Area>
111.94

>  <Non-H Atoms>
19

>  <sp3-Atoms>
3

$$$$
JREKZOMBYITGOF-VNISRJODNA-N
Actelion Java MolfileCreator 2.0

  0  0  0  0  0  0              0 V3000
M  V30 BEGIN CTAB
M  V30 COUNTS 53 54 0 0 0
M  V30 BEGIN ATOM
M  V30 1 O 27.6811 3.6955 65.6116 0
M  V30 2 N 28.0991 4.8278 65.8435 0
M  V30 3 C 27.7004 5.8388 64.9496 0
M  V30 4 C 26.4478 5.8323 64.3619 0
M  V30 5 C 28.5758 6.859 64.6606 0
M  V30 6 N 26.1098 6.8126 63.5216 0
M  V30 7 N 25.599 4.8095 64.5971 0
M  V30 8 N 28.1948 7.8205 63.8201 0
M  V30 9 N 29.8188 6.8225 65.1969 0
M  V30 10 C 26.9878 7.7813 63.231 0
M  V30 11 C 24.4453 4.5567 63.7459 0
M  V30 12 C 30.8751 7.6602 64.7338 0
M  V30 13 N 26.7159 8.7628 62.3572 0
M  V30 14 C 23.1387 4.9267 64.4125 0
M  V30 15 C 24.4686 3.0936 63.3626 0
M  V30 16 C 30.9023 8.7838 65.7119 0
M  V30 17 C 25.5757 8.8206 61.4338 0 CFG=2
M  V30 18 C 31.1886 8.463 67.0307 0
M  V30 19 C 30.6455 10.0928 65.3205 0
M  V30 20 C 24.859 7.5023 61.1065 0
M  V30 21 C 24.5388 9.8462 61.8587 0
M  V30 22 C 31.2262 9.4577 67.992 0
M  V30 23 C 30.6676 11.1023 66.2898 0
M  V30 24 O 25.2212 7.2727 59.755 0
M  V30 25 C 25.1691 11.2164 62.0425 0
M  V30 26 C 30.9609 10.7698 67.6325 0
M  V30 27 O 30.9809 11.7275 68.5974 0
M  V30 28 H 25.6173 4.3829 65.5015 0
M  V30 29 H 30.0643 6.0252 65.748 0
M  V30 30 H 24.5425 5.1537 62.8272 0
M  V30 31 H 31.8321 7.1182 64.735 0
M  V30 32 H 30.6642 8.0302 63.7197 0
M  V30 33 H 27.5387 9.1938 61.9871 0
M  V30 34 H 22.3041 4.716 63.7276 0
M  V30 35 H 23.016 4.3358 65.3323 0
M  V30 36 H 23.1452 5.9979 64.6634 0
M  V30 37 H 23.6067 2.8692 62.7171 0
M  V30 38 H 25.3998 2.8716 62.8213 0
M  V30 39 H 24.4164 2.4759 64.2715 0
M  V30 40 H 25.9754 9.1831 60.4754 0
M  V30 41 H 31.382 7.4372 67.3073 0
M  V30 42 H 30.4329 10.3264 64.288 0
M  V30 43 H 25.2131 6.6877 61.7554 0
M  V30 44 H 23.769 7.6075 61.2121 0
M  V30 45 H 24.0871 9.5281 62.81 0
M  V30 46 H 23.7588 9.9103 61.0858 0
M  V30 47 H 31.461 9.213 69.0175 0
M  V30 48 H 30.4623 12.1264 66.0147 0
M  V30 49 H 24.8184 7.9323 59.2025 0
M  V30 50 H 24.3971 11.9376 62.3494 0
M  V30 51 H 25.9474 11.1608 62.8178 0
M  V30 52 H 25.619 11.543 61.0936 0
M  V30 53 H 30.667 11.3604 69.4156 0
M  V30 END ATOM
M  V30 BEGIN BOND
M  V30 1 2 1 2
M  V30 2 1 2 3
M  V30 3 2 3 4
M  V30 4 1 3 5
M  V30 5 1 4 6
M  V30 6 1 4 7
M  V30 7 2 5 8
M  V30 8 1 5 9
M  V30 9 2 6 10
M  V30 10 1 7 11
M  V30 11 1 9 12
M  V30 12 1 10 13
M  V30 13 1 11 14
M  V30 14 1 11 15
M  V30 15 1 12 16
M  V30 16 1 13 17
M  V30 17 2 16 18
M  V30 18 1 16 19
M  V30 19 1 17 20
M  V30 20 1 17 21
M  V30 21 1 18 22
M  V30 22 2 19 23
M  V30 23 1 20 24
M  V30 24 1 21 25
M  V30 25 2 22 26
M  V30 26 1 26 27
M  V30 27 1 8 10
M  V30 28 1 23 26
M  V30 29 1 7 28
M  V30 30 1 9 29
M  V30 31 1 11 30
M  V30 32 1 12 31
M  V30 33 1 12 32
M  V30 34 1 13 33
M  V30 35 1 14 34
M  V30 36 1 14 35
M  V30 37 1 14 36
M  V30 38 1 15 37
M  V30 39 1 15 38
M  V30 40 1 15 39
M  V30 41 1 17 40
M  V30 42 1 18 41
M  V30 43 1 19 42
M  V30 44 1 20 43
M  V30 45 1 20 44
M  V30 46 1 21 45
M  V30 47 1 21 46
M  V30 48 1 22 47
M  V30 49 1 23 48
M  V30 50 1 24 49
M  V30 51 1 25 50
M  V30 52 1 25 51
M  V30 53 1 25 52
M  V30 54 1 27 53
M  V30 END BOND
M  V30 BEGIN COLLECTION
M  V30 MDLV30/STERAC1 ATOMS=(1 17)
M  V30 END COLLECTION
M  V30 END CTAB
M  END
>  <Molecule Name>
JREKZOMBYITGOF-VNISRJODNA-N

>  <hs_clash>
0.0

>  <hs_total>
89.49676488016848

>  <Total Molweight>
374.443

>  <cLogP>
2.0108

>  <H-Acceptors>
9

>  <H-Donors>
5

>  <Polar Surface Area>
131.76

>  <Non-H Atoms>
27

>  <sp3-Atoms>
10

$$$$
VCPXSBULBDYRLT-OSDYFTAGNA-O
Actelion Java MolfileCreator 2.0

  0  0  0  0  0  0              0 V3000
M  V30 BEGIN CTAB
M  V30 COUNTS 58 61 0 0 0
M  V30 BEGIN ATOM
M  V30 1 O 32.1998 10.8911 66.1401 0
M  V30 2 C 31.6301 9.6152 66.0639 0
M  V30 3 C 31.8332 12.0369 66.9388 0
M  V30 4 C 31.7149 8.7125 67.1242 0
M  V30 5 C 31.0102 9.1836 64.8829 0
M  V30 6 C 33.0671 12.9271 67.2124 0 CFG=1
M  V30 7 C 31.1663 7.4305 67.0192 0
M  V30 8 C 30.4556 7.8939 64.7724 0
M  V30 9 O 34.2329 12.3076 66.6677 0
M  V30 10 C 32.9689 14.351 66.6272 0
M  V30 11 C 30.5294 7.0034 65.8571 0
M  V30 12 N 32.0537 15.2758 67.3186 0 CHG=1
M  V30 13 N 30.0532 5.7259 65.8623 0
M  V30 14 C 31.2592 16.0325 66.355 0
M  V30 15 C 32.8265 16.2825 68.0365 0
M  V30 16 C 28.8984 5.2179 65.3618 0
M  V30 17 N 28.0645 5.9674 64.6287 0
M  V30 18 N 28.5776 3.9137 65.6015 0
M  V30 19 C 26.904 5.4508 64.1657 0
M  V30 20 C 27.4547 3.3479 65.1331 0
M  V30 21 C 26.0752 6.3548 63.3559 0
M  V30 22 C 26.5682 4.1196 64.389 0
M  V30 23 N 26.2258 7.7892 63.2864 0
M  V30 24 C 24.9766 6.0362 62.3896 0
M  V30 25 C 25.2693 8.2071 62.3587 0
M  V30 26 C 27.0443 8.6223 63.9508 0
M  V30 27 N 24.5319 7.1734 61.8495 0
M  V30 28 C 24.4273 4.6806 62.0613 0
M  V30 29 C 25.1229 9.5509 62.0798 0
M  V30 30 C 26.9242 9.9892 63.6652 0
M  V30 31 C 25.967 10.4418 62.741 0
M  V30 32 H 31.0752 12.6252 66.4009 0
M  V30 33 H 31.4171 11.6916 67.897 0
M  V30 34 H 32.2101 9.0075 68.0376 0
M  V30 35 H 30.9566 9.8554 64.039 0
M  V30 36 H 33.1798 13.0186 68.3029 0
M  V30 37 H 31.2383 6.7559 67.8594 0
M  V30 38 H 29.9739 7.5898 63.8551 0
M  V30 39 H 34.0888 11.3716 66.593 0
M  V30 40 H 33.9754 14.7941 66.6516 0
M  V30 41 H 32.6321 14.2628 65.584 0
M  V30 42 H 31.4596 14.7737 67.9471 0
M  V30 43 H 30.6496 5.0571 66.3058 0
M  V30 44 H 30.5839 16.7157 66.8918 0
M  V30 45 H 31.9287 16.6148 65.7051 0
M  V30 46 H 30.6662 15.3374 65.7428 0
M  V30 47 H 32.1421 16.9724 68.5524 0
M  V30 48 H 33.4746 15.7888 68.7756 0
M  V30 49 H 33.4463 16.846 67.3236 0
M  V30 50 H 27.242 2.3076 65.3311 0
M  V30 51 H 25.6524 3.7004 63.9991 0
M  V30 52 H 27.7609 8.2562 64.6711 0
M  V30 53 H 23.6198 4.7811 61.3211 0
M  V30 54 H 25.2284 4.0513 61.6467 0
M  V30 55 H 24.0307 4.2146 62.9754 0
M  V30 56 H 24.3816 9.8994 61.3757 0
M  V30 57 H 27.5711 10.6994 64.1589 0
M  V30 58 H 25.8842 11.4997 62.5389 0
M  V30 END ATOM
M  V30 BEGIN BOND
M  V30 1 1 1 2
M  V30 2 1 1 3
M  V30 3 2 2 4
M  V30 4 1 2 5
M  V30 5 1 3 6
M  V30 6 1 4 7
M  V30 7 2 5 8
M  V30 8 1 6 9
M  V30 9 1 6 10
M  V30 10 2 7 11
M  V30 11 1 10 12
M  V30 12 1 11 13
M  V30 13 1 12 14
M  V30 14 1 12 15
M  V30 15 1 13 16
M  V30 16 2 16 17
M  V30 17 1 16 18
M  V30 18 1 17 19
M  V30 19 2 18 20
M  V30 20 1 19 21
M  V30 21 2 19 22
M  V30 22 1 21 23
M  V30 23 2 21 24
M  V30 24 1 23 25
M  V30 25 1 23 26
M  V30 26 1 24 27
M  V30 27 1 24 28
M  V30 28 1 25 29
M  V30 29 2 26 30
M  V30 30 2 29 31
M  V30 31 1 8 11
M  V30 32 1 20 22
M  V30 33 2 25 27
M  V30 34 1 30 31
M  V30 35 1 3 32
M  V30 36 1 3 33
M  V30 37 1 4 34
M  V30 38 1 5 35
M  V30 39 1 6 36
M  V30 40 1 7 37
M  V30 41 1 8 38
M  V30 42 1 9 39
M  V30 43 1 10 40
M  V30 44 1 10 41
M  V30 45 1 12 42
M  V30 46 1 13 43
M  V30 47 1 14 44
M  V30 48 1 14 45
M  V30 49 1 14 46
M  V30 50 1 15 47
M  V30 51 1 15 48
M  V30 52 1 15 49
M  V30 53 1 20 50
M  V30 54 1 22 51
M  V30 55 1 26 52
M  V30 56 1 28 53
M  V30 57 1 28 54
M  V30 58 1 28 55
M  V30 59 1 29 56
M  V30 60 1 30 57
M  V30 61 1 31 58
M  V30 END BOND
M  V30 BEGIN COLLECTION
M  V30 MDLV30/STERAC1 ATOMS=(1 6)
M  V30 END COLLECTION
M  V30 END CTAB
M  END
>  <Molecule Name>
VCPXSBULBDYRLT-OSDYFTAGNA-O

>  <hs_clash>
0.0

>  <hs_total>
89.30827781959832

>  <Total Molweight>
419.507

>  <cLogP>
0.874

>  <H-Acceptors>
8

>  <H-Donors>
3

>  <Polar Surface Area>
89.01

>  <Non-H Atoms>
31

>  <sp3-Atoms>
9

$$$$
BKOYUSKBPMSUBK-WRDIIZFPNA-O
Actelion Java MolfileCreator 2.0

  0  0  0  0  0  0              0 V3000
M  V30 BEGIN CTAB
M  V30 COUNTS 55 58 0 0 0
M  V30 BEGIN ATOM
M  V30 1 S 25.494 7.4578 61.7703 0
M  V30 2 C 23.8863 7.8571 61.2519 0
M  V30 3 C 25.0193 6.3757 63.0184 0
M  V30 4 N 23.0409 7.1645 62.0329 0
M  V30 5 N 23.5418 8.7573 60.1883 0
M  V30 6 C 25.9055 5.6862 63.8482 0
M  V30 7 C 23.6067 6.3751 62.9719 0
M  V30 8 C 24.5891 9.4244 59.4702 0
M  V30 9 N 26.8863 6.3953 64.4772 0
M  V30 10 C 25.841 4.2848 64.0355 0
M  V30 11 C 22.7331 5.5384 63.9284 0
M  V30 12 C 27.7812 5.7929 65.2674 0
M  V30 13 C 24.7989 3.4605 63.3669 0
M  V30 14 C 26.7709 3.6772 64.863 0
M  V30 15 N 27.7301 4.4431 65.4744 0
M  V30 16 N 28.8216 6.5902 65.9463 0
M  V30 17 N 24.0026 2.8314 62.8591 0
M  V30 18 C 29.3574 7.7816 65.4065 0
M  V30 19 C 28.6374 8.5553 64.5042 0
M  V30 20 C 30.67 8.1951 65.8126 0
M  V30 21 C 29.202 9.7557 63.9784 0
M  V30 22 C 31.2279 9.3708 65.2996 0
M  V30 23 N 28.4405 10.5888 63.0205 0
M  V30 24 C 30.4976 10.1548 64.3829 0
M  V30 25 C 28.4263 9.9362 61.7407 0
M  V30 26 C 27.2919 11.4201 63.2833 0
M  V30 27 C 28.3416 10.8695 60.5622 0
M  V30 28 C 27.5486 12.8562 62.966 0
M  V30 29 N 27.4175 11.9545 60.7142 0 CHG=1
M  V30 30 C 27.9191 13.0292 61.5231 0
M  V30 31 H 22.7293 8.5179 59.6566 0
M  V30 32 H 24.1496 10.0708 58.6964 0
M  V30 33 H 25.1791 10.0369 60.168 0
M  V30 34 H 25.2419 8.6766 58.9962 0
M  V30 35 H 22.1133 4.8417 63.3446 0
M  V30 36 H 23.3798 4.969 64.6123 0
M  V30 37 H 22.0823 6.2074 64.511 0
M  V30 38 H 26.7403 2.61 65.0256 0
M  V30 39 H 29.4725 6.0502 66.4797 0
M  V30 40 H 27.6477 8.2475 64.2002 0
M  V30 41 H 31.2288 7.5968 66.5169 0
M  V30 42 H 32.2172 9.6778 65.6057 0
M  V30 43 H 30.9287 11.0629 63.9881 0
M  V30 44 H 27.5571 9.263 61.7087 0
M  V30 45 H 29.3502 9.347 61.6462 0
M  V30 46 H 26.4507 11.0667 62.6689 0
M  V30 47 H 27.0289 11.3347 64.3482 0
M  V30 48 H 28.0368 10.2825 59.6834 0
M  V30 49 H 29.3413 11.2945 60.3908 0
M  V30 50 H 26.6399 13.4395 63.1766 0
M  V30 51 H 28.373 13.222 63.5957 0
M  V30 52 H 26.5834 11.6023 61.1391 0
M  V30 53 H 27.2024 12.316 59.807 0
M  V30 54 H 27.4973 13.9775 61.1581 0
M  V30 55 H 29.0151 13.0585 61.4376 0
M  V30 END ATOM
M  V30 BEGIN BOND
M  V30 1 1 1 2
M  V30 2 1 1 3
M  V30 3 2 2 4
M  V30 4 1 2 5
M  V30 5 1 3 6
M  V30 6 2 3 7
M  V30 7 1 5 8
M  V30 8 2 6 9
M  V30 9 1 6 10
M  V30 10 1 7 11
M  V30 11 1 9 12
M  V30 12 1 10 13
M  V30 13 2 10 14
M  V30 14 2 12 15
M  V30 15 1 12 16
M  V30 16 3 13 17
M  V30 17 1 16 18
M  V30 18 2 18 19
M  V30 19 1 18 20
M  V30 20 1 19 21
M  V30 21 2 20 22
M  V30 22 1 21 23
M  V30 23 2 21 24
M  V30 24 1 23 25
M  V30 25 1 23 26
M  V30 26 1 25 27
M  V30 27 1 26 28
M  V30 28 1 27 29
M  V30 29 1 28 30
M  V30 30 1 4 7
M  V30 31 1 14 15
M  V30 32 1 22 24
M  V30 33 1 29 30
M  V30 34 1 5 31
M  V30 35 1 8 32
M  V30 36 1 8 33
M  V30 37 1 8 34
M  V30 38 1 11 35
M  V30 39 1 11 36
M  V30 40 1 11 37
M  V30 41 1 14 38
M  V30 42 1 16 39
M  V30 43 1 19 40
M  V30 44 1 20 41
M  V30 45 1 22 42
M  V30 46 1 24 43
M  V30 47 1 25 44
M  V30 48 1 25 45
M  V30 49 1 26 46
M  V30 50 1 26 47
M  V30 51 1 27 48
M  V30 52 1 27 49
M  V30 53 1 28 50
M  V30 54 1 28 51
M  V30 55 1 29 52
M  V30 56 1 29 53
M  V30 57 1 30 54
M  V30 58 1 30 55
M  V30 END BOND
M  V30 END CTAB
M  END
>  <Molecule Name>
BKOYUSKBPMSUBK-WRDIIZFPNA-O

>  <hs_clash>
0.0

>  <hs_total>
89.06600182418505

>  <Total Molweight>
421.552

>  <cLogP>
3.0978

>  <H-Acceptors>
8

>  <H-Donors>
3

>  <Polar Surface Area>
134.61

>  <Non-H Atoms>
30

>  <sp3-Atoms>
8

$$$$
MIGKKDVNMPOUSL-QGWGMMNFNA-O
Actelion Java MolfileCreator 2.0

  0  0  0  0  0  0              0 V3000
M  V30 BEGIN CTAB
M  V30 COUNTS 50 52 0 0 0
M  V30 BEGIN ATOM
M  V30 1 S 33.6903 10.9346 64.9898 0
M  V30 2 O 34.4193 10.7025 63.779 0
M  V30 3 O 34.3823 10.8869 66.2423 0
M  V30 4 N 33.0263 12.4023 64.8641 0
M  V30 5 C 32.3913 9.7581 65.0376 0
M  V30 6 C 31.7193 12.7503 65.4394 0
M  V30 7 C 32.2394 8.9475 66.1502 0
M  V30 8 C 31.5742 9.6166 63.936 0
M  V30 9 C 31.6407 12.6388 66.9523 0
M  V30 10 C 31.2637 7.9683 66.1448 0
M  V30 11 C 30.5818 8.6596 63.9498 0
M  V30 12 N 31.3036 13.9298 67.6371 0 CHG=1
M  V30 13 C 30.4089 7.8421 65.0603 0
M  V30 14 C 30.8897 13.7124 69.0489 0
M  V30 15 C 32.4229 14.9098 67.57 0
M  V30 16 N 29.395 6.8573 65.067 0
M  V30 17 C 28.3848 6.7794 64.2158 0
M  V30 18 C 27.511 5.7202 64.1616 0
M  V30 19 C 27.7026 4.4634 64.9725 0
M  V30 20 C 26.3637 5.5055 63.3216 0
M  V30 21 O 28.5699 4.3068 65.8466 0
M  V30 22 N 26.7539 3.5992 64.5426 0
M  V30 23 C 25.9352 4.182 63.5525 0
M  V30 24 C 25.6658 6.292 62.4062 0
M  V30 25 C 24.8857 3.6251 62.8426 0
M  V30 26 C 24.5637 5.7587 61.7424 0
M  V30 27 C 24.1899 4.4277 61.9411 0
M  V30 28 H 33.2389 12.8779 64.0108 0
M  V30 29 H 30.9645 12.0773 65.0067 0
M  V30 30 H 31.4875 13.7887 65.1601 0
M  V30 31 H 32.8763 9.079 67.0125 0
M  V30 32 H 31.7103 10.2491 63.0713 0
M  V30 33 H 30.867 11.8994 67.2062 0
M  V30 34 H 32.6156 12.2925 67.3258 0
M  V30 35 H 31.1665 7.2998 66.9877 0
M  V30 36 H 29.9347 8.5449 63.0928 0
M  V30 37 H 30.5247 14.3296 67.1536 0
M  V30 38 H 30.0633 12.9875 69.082 0
M  V30 39 H 31.7421 13.3234 69.6249 0
M  V30 40 H 30.5578 14.6666 69.4848 0
M  V30 41 H 32.7171 15.06 66.521 0
M  V30 42 H 32.0971 15.8687 68.0001 0
M  V30 43 H 33.2813 14.5255 68.1404 0
M  V30 44 H 28.2382 7.5959 63.5242 0
M  V30 45 H 28.951 5.148 66.0696 0
M  V30 46 H 26.6466 2.6653 64.8837 0
M  V30 47 H 25.9775 7.3079 62.2132 0
M  V30 48 H 24.6118 2.5903 62.9847 0
M  V30 49 H 23.9926 6.3799 61.0683 0
M  V30 50 H 23.3555 4.0176 61.3917 0
M  V30 END ATOM
M  V30 BEGIN BOND
M  V30 1 2 1 2
M  V30 2 2 1 3
M  V30 3 1 1 4
M  V30 4 1 1 5
M  V30 5 1 4 6
M  V30 6 2 5 7
M  V30 7 1 5 8
M  V30 8 1 6 9
M  V30 9 1 7 10
M  V30 10 2 8 11
M  V30 11 1 9 12
M  V30 12 2 10 13
M  V30 13 1 12 14
M  V30 14 1 12 15
M  V30 15 1 13 16
M  V30 16 2 16 17
M  V30 17 1 17 18
M  V30 18 2 18 19
M  V30 19 1 18 20
M  V30 20 1 19 21
M  V30 21 1 19 22
M  V30 22 2 20 23
M  V30 23 1 20 24
M  V30 24 1 23 25
M  V30 25 2 24 26
M  V30 26 2 25 27
M  V30 27 1 11 13
M  V30 28 1 22 23
M  V30 29 1 26 27
M  V30 30 1 4 28
M  V30 31 1 6 29
M  V30 32 1 6 30
M  V30 33 1 7 31
M  V30 34 1 8 32
M  V30 35 1 9 33
M  V30 36 1 9 34
M  V30 37 1 10 35
M  V30 38 1 11 36
M  V30 39 1 12 37
M  V30 40 1 14 38
M  V30 41 1 14 39
M  V30 42 1 14 40
M  V30 43 1 15 41
M  V30 44 1 15 42
M  V30 45 1 15 43
M  V30 46 1 17 44
M  V30 47 1 21 45
M  V30 48 1 22 46
M  V30 49 1 24 47
M  V30 50 1 25 48
M  V30 51 1 26 49
M  V30 52 1 27 50
M  V30 END BOND
M  V30 END CTAB
M  END
>  <Molecule Name>
MIGKKDVNMPOUSL-QGWGMMNFNA-O

>  <hs_clash>
0.0

>  <hs_total>
88.25893675729006

>  <Total Molweight>
387.483

>  <cLogP>
0.5374

>  <H-Acceptors>
7

>  <H-Donors>
4

>  <Polar Surface Area>
107.37

>  <Non-H Atoms>
27

>  <sp3-Atoms>
7

$$$$
IFKSVNMHRIABRM-HVXXBKQBNA-N
Actelion Java MolfileCreator 2.0

  0  0  0  0  0  0              0 V3000
M  V30 BEGIN CTAB
M  V30 COUNTS 44 45 0 0 0
M  V30 BEGIN ATOM
M  V30 1 O 23.7654 6.9388 63.0404 0
M  V30 2 N 24.7785 7.7575 62.8256 0 CHG=1
M  V30 3 O 24.5405 8.873 62.1805 0 CHG=-1
M  V30 4 C 25.9732 7.4628 63.2508 0
M  V30 5 C 27.0805 8.3847 63.1302 0
M  V30 6 C 26.2024 6.1916 63.8605 0
M  V30 7 N 26.9114 9.5425 62.5917 0
M  V30 8 C 28.3745 8.0072 63.6194 0
M  V30 9 C 27.4932 5.8134 64.3507 0
M  V30 10 C 27.9543 10.1867 61.7502 0
M  V30 11 C 28.6005 6.7312 64.2301 0
M  V30 12 C 27.6401 4.5694 64.9291 0
M  V30 13 C 28.2277 11.5883 62.2854 0
M  V30 14 N 29.7822 6.3914 64.6749 0
M  V30 15 O 28.4836 4.3735 65.7719 0
M  V30 16 N 26.8218 3.5346 64.5531 0
M  V30 17 C 29.718 11.755 62.5343 0
M  V30 18 C 31.0472 7.1159 64.385 0
M  V30 19 O 29.9163 12.5821 63.6557 0
M  V30 20 C 31.2923 8.215 65.4002 0
M  V30 21 C 31.7368 9.478 64.9857 0
M  V30 22 C 31.0764 8.0132 66.794 0
M  V30 23 N 31.9737 10.5192 65.8596 0
M  V30 24 C 31.3076 9.0626 67.7137 0
M  V30 25 C 31.7536 10.2931 67.2032 0
M  V30 26 H 25.3801 5.4978 63.9544 0
M  V30 27 H 26.0487 10.025 62.7447 0
M  V30 28 H 29.197 8.7005 63.5252 0
M  V30 29 H 28.8779 9.5911 61.7876 0
M  V30 30 H 27.6011 10.2516 60.7106 0
M  V30 31 H 27.8936 12.3336 61.5485 0
M  V30 32 H 27.6801 11.7341 63.2282 0
M  V30 33 H 29.8006 5.755 65.4461 0
M  V30 34 H 26.9283 2.6344 64.975 0
M  V30 35 H 26.1185 3.6808 63.8573 0
M  V30 36 H 30.171 10.7704 62.7203 0
M  V30 37 H 30.1879 12.2144 61.6523 0
M  V30 38 H 31.8846 6.4036 64.4177 0
M  V30 39 H 30.9839 7.5618 63.3814 0
M  V30 40 H 30.0092 12.0449 64.4337 0
M  V30 41 H 31.902 9.6445 63.9317 0
M  V30 42 H 30.7339 7.0531 67.1506 0
M  V30 43 H 31.1463 8.9232 68.7726 0
M  V30 44 H 31.9337 11.1018 67.8963 0
M  V30 END ATOM
M  V30 BEGIN BOND
M  V30 1 2 1 2
M  V30 2 1 2 3
M  V30 3 1 2 4
M  V30 4 2 4 5
M  V30 5 1 4 6
M  V30 6 1 5 7
M  V30 7 1 5 8
M  V30 8 2 6 9
M  V30 9 1 7 10
M  V30 10 2 8 11
M  V30 11 1 9 12
M  V30 12 1 10 13
M  V30 13 1 11 14
M  V30 14 2 12 15
M  V30 15 1 12 16
M  V30 16 1 13 17
M  V30 17 1 14 18
M  V30 18 1 17 19
M  V30 19 1 18 20
M  V30 20 2 20 21
M  V30 21 1 20 22
M  V30 22 1 21 23
M  V30 23 2 22 24
M  V30 24 2 23 25
M  V30 25 1 9 11
M  V30 26 1 24 25
M  V30 27 1 6 26
M  V30 28 1 7 27
M  V30 29 1 8 28
M  V30 30 1 10 29
M  V30 31 1 10 30
M  V30 32 1 13 31
M  V30 33 1 13 32
M  V30 34 1 14 33
M  V30 35 1 16 34
M  V30 36 1 16 35
M  V30 37 1 17 36
M  V30 38 1 17 37
M  V30 39 1 18 38
M  V30 40 1 18 39
M  V30 41 1 19 40
M  V30 42 1 21 41
M  V30 43 1 22 42
M  V30 44 1 24 43
M  V30 45 1 25 44
M  V30 END BOND
M  V30 END CTAB
M  END
>  <Molecule Name>
IFKSVNMHRIABRM-HVXXBKQBNA-N

>  <hs_clash>
0.0

>  <hs_total>
88.08571134451654

>  <Total Molweight>
345.358

>  <cLogP>
-0.5295

>  <H-Acceptors>
9

>  <H-Donors>
4

>  <Polar Surface Area>
146.09

>  <Non-H Atoms>
25

>  <sp3-Atoms>
6

$$$$
FJJJERLTHDXEPT-SBTPUNAANA-O
Actelion Java MolfileCreator 2.0

  0  0  0  0  0  0              0 V3000
M  V30 BEGIN CTAB
M  V30 COUNTS 38 40 0 0 0
M  V30 BEGIN ATOM
M  V30 1 S 31.3789 10.8346 64.6499 0
M  V30 2 O 32.3226 10.9551 65.7253 0
M  V30 3 O 32.0825 10.6854 63.4064 0
M  V30 4 N 30.4628 12.1473 64.5948 0
M  V30 5 C 30.3716 9.4159 64.9055 0
M  V30 6 C 29.8921 12.6591 63.3869 0
M  V30 7 C 30.6419 8.4227 65.8415 0
M  V30 8 C 29.2802 9.3225 64.052 0
M  V30 9 C 29.7909 7.3264 65.9508 0
M  V30 10 C 28.4413 8.2228 64.1623 0
M  V30 11 C 28.6894 7.2298 65.1028 0
M  V30 12 C 27.7086 6.097 65.0523 0
M  V30 13 O 26.6794 6.081 64.1497 0
M  V30 14 C 27.659 4.9197 65.7889 0
M  V30 15 C 25.9809 4.9134 64.2744 0
M  V30 16 C 26.5864 4.184 65.295 0
M  V30 17 C 24.7993 4.5256 63.4654 0
M  V30 18 C 24.29 5.2998 62.4955 0
M  V30 19 S 24.8622 6.7858 62.021 0
M  V30 20 C 23.1893 5.0295 61.6874 0
M  V30 21 C 23.7178 7.0561 60.8473 0
M  V30 22 O 22.5047 4.0103 61.7144 0
M  V30 23 N 22.9185 5.9944 60.8122 0
M  V30 24 N 23.6168 8.0799 60.1037 0 CHG=1
M  V30 25 H 29.8976 12.2888 65.4078 0
M  V30 26 H 29.3081 13.5639 63.6112 0
M  V30 27 H 30.6958 12.9079 62.6785 0
M  V30 28 H 29.2335 11.8987 62.9421 0
M  V30 29 H 31.5084 8.5024 66.481 0
M  V30 30 H 29.0881 10.0904 63.3172 0
M  V30 31 H 29.9825 6.5587 66.6858 0
M  V30 32 H 27.5852 8.1375 63.5097 0
M  V30 33 H 28.3239 4.6316 66.5898 0
M  V30 34 H 26.2753 3.2108 65.6443 0
M  V30 35 H 24.327 3.5758 63.6671 0
M  V30 36 H 22.1583 5.9249 60.1664 0
M  V30 37 H 24.2708 8.8309 60.1953 0
M  V30 38 H 22.8832 8.1356 59.4265 0
M  V30 END ATOM
M  V30 BEGIN BOND
M  V30 1 2 1 2
M  V30 2 2 1 3
M  V30 3 1 1 4
M  V30 4 1 1 5
M  V30 5 1 4 6
M  V30 6 2 5 7
M  V30 7 1 5 8
M  V30 8 1 7 9
M  V30 9 2 8 10
M  V30 10 2 9 11
M  V30 11 1 11 12
M  V30 12 1 12 13
M  V30 13 2 12 14
M  V30 14 1 13 15
M  V30 15 1 14 16
M  V30 16 1 15 17
M  V30 17 2 17 18
M  V30 18 1 18 19
M  V30 19 1 18 20
M  V30 20 1 19 21
M  V30 21 2 20 22
M  V30 22 1 20 23
M  V30 23 2 21 24
M  V30 24 1 10 11
M  V30 25 2 15 16
M  V30 26 1 21 23
M  V30 27 1 4 25
M  V30 28 1 6 26
M  V30 29 1 6 27
M  V30 30 1 6 28
M  V30 31 1 7 29
M  V30 32 1 8 30
M  V30 33 1 9 31
M  V30 34 1 10 32
M  V30 35 1 14 33
M  V30 36 1 16 34
M  V30 37 1 17 35
M  V30 38 1 23 36
M  V30 39 1 24 37
M  V30 40 1 24 38
M  V30 END BOND
M  V30 END CTAB
M  END
>  <Molecule Name>
FJJJERLTHDXEPT-SBTPUNAANA-O

>  <hs_clash>
0.0

>  <hs_total>
87.69879708384858

>  <Total Molweight>
364.425

>  <cLogP>
1.7371

>  <H-Acceptors>
7

>  <H-Donors>
3

>  <Polar Surface Area>
147.68

>  <Non-H Atoms>
24

>  <sp3-Atoms>
3

$$$$
FVFVVRPJERUECT-LMJMLDNBNA-N
Actelion Java MolfileCreator 2.0

  0  0  0  0  0  0              0 V3000
M  V30 BEGIN CTAB
M  V30 COUNTS 29 30 0 0 0
M  V30 BEGIN ATOM
M  V30 1 S 33.2053 10.8057 64.8495 0
M  V30 2 O 34.1774 10.2388 63.971 0
M  V30 3 O 33.8719 11.1206 66.1525 0
M  V30 4 N 32.6312 12.1737 64.261 0
M  V30 5 C 32.0066 9.6177 65.207 0
M  V30 6 C 31.2096 9.0911 64.1828 0
M  V30 7 C 32.0263 8.9766 66.473 0
M  V30 8 C 30.4421 7.9399 64.3914 0
M  V30 9 C 31.2368 7.8316 66.6852 0
M  V30 10 C 30.394 7.328 65.6626 0
M  V30 11 N 29.5942 6.2821 65.8962 0
M  V30 12 C 28.5914 5.7746 65.1933 0
M  V30 13 N 28.2648 4.4493 65.4336 0
M  V30 14 C 27.8262 6.5046 64.2718 0
M  V30 15 C 27.2332 3.9042 64.7715 0
M  V30 16 C 26.6786 5.9092 63.6747 0
M  V30 17 N 26.3657 4.6129 63.9459 0
M  V30 18 N 25.8819 6.5933 62.7829 0
M  V30 19 H 33.3091 12.5861 63.6528 0
M  V30 20 H 31.792 11.9906 63.7487 0
M  V30 21 H 31.1872 9.5797 63.2201 0
M  V30 22 H 32.6441 9.3656 67.269 0
M  V30 23 H 29.8811 7.5157 63.5722 0
M  V30 24 H 31.2731 7.3294 67.6409 0
M  V30 25 H 30.0809 5.5644 66.3943 0
M  V30 26 H 28.1066 7.5156 64.0159 0
M  V30 27 H 27.0644 2.844 64.8875 0
M  V30 28 H 26.2235 7.5274 62.6786 0
M  V30 29 H 25.9001 6.131 61.8966 0
M  V30 END ATOM
M  V30 BEGIN BOND
M  V30 1 2 1 2
M  V30 2 2 1 3
M  V30 3 1 1 4
M  V30 4 1 1 5
M  V30 5 2 5 6
M  V30 6 1 5 7
M  V30 7 1 6 8
M  V30 8 2 7 9
M  V30 9 2 8 10
M  V30 10 1 10 11
M  V30 11 1 11 12
M  V30 12 2 12 13
M  V30 13 1 12 14
M  V30 14 1 13 15
M  V30 15 2 14 16
M  V30 16 2 15 17
M  V30 17 1 16 18
M  V30 18 1 9 10
M  V30 19 1 16 17
M  V30 20 1 4 19
M  V30 21 1 4 20
M  V30 22 1 6 21
M  V30 23 1 7 22
M  V30 24 1 8 23
M  V30 25 1 9 24
M  V30 26 1 11 25
M  V30 27 1 14 26
M  V30 28 1 15 27
M  V30 29 1 18 28
M  V30 30 1 18 29
M  V30 END BOND
M  V30 END CTAB
M  END
>  <Molecule Name>
FVFVVRPJERUECT-LMJMLDNBNA-N

>  <hs_clash>
2.0

>  <hs_total>
87.6770375266699

>  <Total Molweight>
265.296

>  <cLogP>
0.4163

>  <H-Acceptors>
7

>  <H-Donors>
3

>  <Polar Surface Area>
132.37

>  <Non-H Atoms>
18

>  <sp3-Atoms>
1

$$$$
IRKLIGPGIXNXTP-DZQCGVKKNA-N
Actelion Java MolfileCreator 2.0

  0  0  0  0  0  0              0 V3000
M  V30 BEGIN CTAB
M  V30 COUNTS 47 48 0 0 0
M  V30 BEGIN ATOM
M  V30 1 O 24.2944 7.4655 62.8428 0
M  V30 2 N 25.3918 8.1744 62.6822 0 CHG=1
M  V30 3 O 25.2844 9.3404 62.1025 0 CHG=-1
M  V30 4 C 26.5209 7.7361 63.1204 0
M  V30 5 C 27.7226 8.4843 62.9466 0
M  V30 6 C 26.5741 6.4681 63.7985 0
M  V30 7 N 27.6878 9.6297 62.3277 0
M  V30 8 C 28.9422 7.9635 63.4586 0
M  V30 9 C 27.8005 5.9363 64.3116 0
M  V30 10 C 28.8806 10.5075 62.159 0
M  V30 11 C 29.0053 6.6937 64.1488 0
M  V30 12 C 27.7867 4.7035 64.9448 0
M  V30 13 C 28.5517 11.6085 61.1543 0
M  V30 14 N 30.1397 6.2324 64.6164 0
M  V30 15 O 28.6427 4.3913 65.7599 0
M  V30 16 N 26.8136 3.7896 64.6334 0
M  V30 17 C 27.7078 12.6758 61.8426 0
M  V30 18 C 31.4629 6.9378 64.5039 0
M  V30 19 O 26.3758 12.253 61.8711 0
M  V30 20 C 31.5774 8.1124 65.4655 0
M  V30 21 C 25.5437 12.6242 62.9308 0
M  V30 22 C 31.3283 7.9758 66.8517 0
M  V30 23 C 31.9374 9.3922 64.9867 0
M  V30 24 N 31.4244 9.0257 67.7279 0
M  V30 25 C 32.0443 10.483 65.8674 0
M  V30 26 C 31.778 10.2503 67.2279 0
M  V30 27 H 25.6631 5.9017 63.9241 0
M  V30 28 H 26.8247 10.125 62.428 0
M  V30 29 H 29.8501 8.534 63.3284 0
M  V30 30 H 29.1456 10.959 63.1266 0
M  V30 31 H 29.727 9.9111 61.7884 0
M  V30 32 H 29.4841 12.0589 60.783 0
M  V30 33 H 27.9893 11.1816 60.3108 0
M  V30 34 H 30.0798 5.4971 65.2914 0
M  V30 35 H 26.8143 2.8901 65.0699 0
M  V30 36 H 26.1027 4.0228 63.9697 0
M  V30 37 H 28.0692 12.8262 62.8707 0
M  V30 38 H 27.7828 13.6217 61.2858 0
M  V30 39 H 32.2658 6.2196 64.7261 0
M  V30 40 H 31.5781 7.3104 63.4755 0
M  V30 41 H 24.5409 12.1988 62.7768 0
M  V30 42 H 25.9616 12.245 63.8752 0
M  V30 43 H 25.4736 13.721 62.9751 0
M  V30 44 H 31.0512 7.0049 67.2349 0
M  V30 45 H 32.1322 9.534 63.934 0
M  V30 46 H 32.321 11.4645 65.5116 0
M  V30 47 H 31.8567 11.0807 67.9145 0
M  V30 END ATOM
M  V30 BEGIN BOND
M  V30 1 2 1 2
M  V30 2 1 2 3
M  V30 3 1 2 4
M  V30 4 2 4 5
M  V30 5 1 4 6
M  V30 6 1 5 7
M  V30 7 1 5 8
M  V30 8 2 6 9
M  V30 9 1 7 10
M  V30 10 2 8 11
M  V30 11 1 9 12
M  V30 12 1 10 13
M  V30 13 1 11 14
M  V30 14 2 12 15
M  V30 15 1 12 16
M  V30 16 1 13 17
M  V30 17 1 14 18
M  V30 18 1 17 19
M  V30 19 1 18 20
M  V30 20 1 19 21
M  V30 21 2 20 22
M  V30 22 1 20 23
M  V30 23 1 22 24
M  V30 24 2 23 25
M  V30 25 2 24 26
M  V30 26 1 9 11
M  V30 27 1 25 26
M  V30 28 1 6 27
M  V30 29 1 7 28
M  V30 30 1 8 29
M  V30 31 1 10 30
M  V30 32 1 10 31
M  V30 33 1 13 32
M  V30 34 1 13 33
M  V30 35 1 14 34
M  V30 36 1 16 35
M  V30 37 1 16 36
M  V30 38 1 17 37
M  V30 39 1 17 38
M  V30 40 1 18 39
M  V30 41 1 18 40
M  V30 42 1 21 41
M  V30 43 1 21 42
M  V30 44 1 21 43
M  V30 45 1 22 44
M  V30 46 1 23 45
M  V30 47 1 25 46
M  V30 48 1 26 47
M  V30 END BOND
M  V30 END CTAB
M  END
>  <Molecule Name>
IRKLIGPGIXNXTP-DZQCGVKKNA-N

>  <hs_clash>
0.0

>  <hs_total>
87.24961867358732

>  <Total Molweight>
359.385

>  <cLogP>
-0.1016

>  <H-Acceptors>
9

>  <H-Donors>
3

>  <Polar Surface Area>
135.09

>  <Non-H Atoms>
26

>  <sp3-Atoms>
7

$$$$
RAKYKJWUUUKCCW-QSHGBQDDNA-O
Actelion Java MolfileCreator 2.0

  0  0  0  0  0  0              0 V3000
M  V30 BEGIN CTAB
M  V30 COUNTS 49 51 0 0 0
M  V30 BEGIN ATOM
M  V30 1 F 23.3199 5.5733 60.853 0
M  V30 2 C 24.1304 5.0246 61.7759 0
M  V30 3 C 25.2739 5.7525 62.1425 0
M  V30 4 C 23.8061 3.7771 62.3281 0
M  V30 5 C 25.5441 6.9941 61.5353 0
M  V30 6 C 26.1321 5.128 63.1621 0
M  V30 7 C 24.6299 3.1819 63.3031 0
M  V30 8 C 25.7904 8.0516 61.0336 0
M  V30 9 C 25.7693 3.86 63.7125 0
M  V30 10 C 27.2821 5.5347 63.7583 0
M  V30 11 C 26.1351 9.2854 60.4497 0 CFG=1
M  V30 12 N 26.7574 3.5358 64.6208 0
M  V30 13 C 27.759 4.5135 64.7523 0
M  V30 14 C 28.0026 6.7899 63.4872 0
M  V30 15 O 25.9238 9.188 59.0382 0
M  V30 16 C 25.4895 10.5234 61.1241 0 CFG=1
M  V30 17 O 28.7056 4.4155 65.5075 0
M  V30 18 C 29.2629 7.3493 63.9719 0
M  V30 19 N 25.1026 10.2824 62.5206 0 CHG=1
M  V30 20 C 26.5547 11.6346 61.0759 0 CFG=2
M  V30 21 N 30.0278 6.7019 64.9211 0
M  V30 22 C 29.8805 8.5372 63.6318 0
M  V30 23 O 25.9814 12.9493 61.0741 0
M  V30 24 C 27.5198 11.5033 59.876 0
M  V30 25 C 31.141 7.4352 65.1758 0
M  V30 26 O 29.4168 9.4621 62.7158 0
M  V30 27 C 31.109 8.5622 64.4185 0
M  V30 28 C 29.8562 10.8271 62.8115 0
M  V30 29 H 22.9127 3.2658 62.0014 0
M  V30 30 H 24.3801 2.2191 63.7233 0
M  V30 31 H 27.2181 9.4122 60.5944 0
M  V30 32 H 26.7603 2.681 65.1396 0
M  V30 33 H 27.4934 7.4312 62.7834 0
M  V30 34 H 25.0186 8.9546 58.8684 0
M  V30 35 H 24.6135 10.8366 60.5369 0
M  V30 36 H 24.9248 11.1563 62.9736 0
M  V30 37 H 24.276 9.7204 62.5454 0
M  V30 38 H 25.8435 9.8066 62.9942 0
M  V30 39 H 27.1642 11.5298 61.9856 0
M  V30 40 H 29.7978 5.8299 65.3531 0
M  V30 41 H 25.468 13.0702 60.2839 0
M  V30 42 H 28.2516 12.3242 59.9018 0
M  V30 43 H 28.0476 10.54 59.934 0
M  V30 44 H 26.9473 11.552 58.9382 0
M  V30 45 H 31.9248 7.1664 65.8683 0
M  V30 46 H 31.8595 9.3385 64.4018 0
M  V30 47 H 29.3917 11.4195 62.0093 0
M  V30 48 H 29.5621 11.2395 63.7882 0
M  V30 49 H 30.9506 10.8679 62.7109 0
M  V30 END ATOM
M  V30 BEGIN BOND
M  V30 1 1 1 2
M  V30 2 2 2 3
M  V30 3 1 2 4
M  V30 4 1 3 5
M  V30 5 1 3 6
M  V30 6 2 4 7
M  V30 7 3 5 8
M  V30 8 2 6 9
M  V30 9 1 6 10
M  V30 10 1 8 11
M  V30 11 1 9 12
M  V30 12 1 10 13
M  V30 13 2 10 14
M  V30 14 1 11 15
M  V30 15 1 11 16
M  V30 16 2 13 17
M  V30 17 1 14 18
M  V30 18 1 16 19
M  V30 19 1 16 20
M  V30 20 1 18 21
M  V30 21 2 18 22
M  V30 22 1 20 23
M  V30 23 1 20 24
M  V30 24 1 21 25
M  V30 25 1 22 26
M  V30 26 1 22 27
M  V30 27 1 26 28
M  V30 28 1 7 9
M  V30 29 1 12 13
M  V30 30 2 25 27
M  V30 31 1 4 29
M  V30 32 1 7 30
M  V30 33 1 11 31
M  V30 34 1 12 32
M  V30 35 1 14 33
M  V30 36 1 15 34
M  V30 37 1 16 35
M  V30 38 1 19 36
M  V30 39 1 19 37
M  V30 40 1 19 38
M  V30 41 1 20 39
M  V30 42 1 21 40
M  V30 43 1 23 41
M  V30 44 1 24 42
M  V30 45 1 24 43
M  V30 46 1 24 44
M  V30 47 1 25 45
M  V30 48 1 27 46
M  V30 49 1 28 47
M  V30 50 1 28 48
M  V30 51 1 28 49
M  V30 END BOND
M  V30 BEGIN COLLECTION
M  V30 MDLV30/STERAC1 ATOMS=(3 11 16 20)
M  V30 END COLLECTION
M  V30 END CTAB
M  END
>  <Molecule Name>
RAKYKJWUUUKCCW-QSHGBQDDNA-O

>  <hs_clash>
0.0

>  <hs_total>
86.65046036817355

>  <Total Molweight>
386.402

>  <cLogP>
-3.1765

>  <H-Acceptors>
7

>  <H-Donors>
5

>  <Polar Surface Area>
122.22

>  <Non-H Atoms>
28

>  <sp3-Atoms>
9

$$$$
VYDLJENKOXKXDK-HPHMPNDVNA-N
Actelion Java MolfileCreator 2.0

  0  0  0  0  0  0              0 V3000
M  V30 BEGIN CTAB
M  V30 COUNTS 52 53 0 0 0
M  V30 BEGIN ATOM
M  V30 1 O 23.6192 7.0011 63.329 0
M  V30 2 N 24.6817 7.5199 62.7435 0 CHG=1
M  V30 3 O 24.5129 8.2354 61.6477 0 CHG=-1
M  V30 4 C 25.8596 7.3115 63.2092 0
M  V30 5 C 26.8862 8.31 63.1188 0
M  V30 6 C 26.1578 6.0642 63.8245 0
M  V30 7 N 26.6433 9.4412 62.5709 0
M  V30 8 C 28.191 8.0442 63.6403 0
M  V30 9 C 27.4522 5.7809 64.3536 0
M  V30 10 C 26.2001 10.5911 63.3804 0
M  V30 11 C 28.4959 6.777 64.2643 0
M  V30 12 C 27.6624 4.5458 64.9361 0
M  V30 13 C 26.9301 11.8567 62.9177 0
M  V30 14 N 29.6844 6.5179 64.7472 0
M  V30 15 O 28.4803 4.4004 65.8184 0
M  V30 16 N 26.9282 3.4636 64.5181 0
M  V30 17 C 28.3845 11.8209 63.3941 0
M  V30 18 C 30.9237 7.2724 64.4116 0
M  V30 19 C 29.1549 12.9777 62.7763 0
M  V30 20 C 31.1641 8.3572 65.4275 0
M  V30 21 C 30.302 13.3806 63.6978 0
M  V30 22 C 31.1247 8.0907 66.8136 0
M  V30 23 C 31.4322 9.6911 65.015 0
M  V30 24 C 30.5123 14.8888 63.6125 0
M  V30 25 N 31.334 9.0586 67.7722 0
M  V30 26 C 31.6528 10.7059 65.9802 0
M  V30 27 C 31.5936 10.345 67.3403 0
M  V30 28 H 25.385 5.3129 63.893 0
M  V30 29 H 26.5049 9.4727 61.5812 0
M  V30 30 H 28.9585 8.8006 63.5669 0
M  V30 31 H 25.1155 10.7287 63.2583 0
M  V30 32 H 26.4286 10.4031 64.4398 0
M  V30 33 H 26.9069 11.9105 61.8194 0
M  V30 34 H 26.4299 12.7414 63.3387 0
M  V30 35 H 29.7664 5.7563 65.3899 0
M  V30 36 H 27.0716 2.5689 64.9406 0
M  V30 37 H 26.2499 3.5704 63.7912 0
M  V30 38 H 28.4122 11.9072 64.4903 0
M  V30 39 H 28.8454 10.8702 63.0892 0
M  V30 40 H 31.7794 6.5817 64.4085 0
M  V30 41 H 30.8142 7.7255 63.4154 0
M  V30 42 H 29.5598 12.6683 61.8018 0
M  V30 43 H 28.4793 13.8346 62.6376 0
M  V30 44 H 30.0563 13.1023 64.7332 0
M  V30 45 H 31.2214 12.8632 63.3871 0
M  V30 46 H 30.9211 7.081 67.1378 0
M  V30 47 H 31.468 9.9321 63.963 0
M  V30 48 H 31.3391 15.1825 64.2761 0
M  V30 49 H 30.7572 15.1668 62.5768 0
M  V30 50 H 29.5922 15.4057 63.9231 0
M  V30 51 H 31.859 11.7233 65.6822 0
M  V30 52 H 31.76 11.1119 68.0824 0
M  V30 END ATOM
M  V30 BEGIN BOND
M  V30 1 2 1 2
M  V30 2 1 2 3
M  V30 3 1 2 4
M  V30 4 2 4 5
M  V30 5 1 4 6
M  V30 6 1 5 7
M  V30 7 1 5 8
M  V30 8 2 6 9
M  V30 9 1 7 10
M  V30 10 2 8 11
M  V30 11 1 9 12
M  V30 12 1 10 13
M  V30 13 1 11 14
M  V30 14 2 12 15
M  V30 15 1 12 16
M  V30 16 1 13 17
M  V30 17 1 14 18
M  V30 18 1 17 19
M  V30 19 1 18 20
M  V30 20 1 19 21
M  V30 21 2 20 22
M  V30 22 1 20 23
M  V30 23 1 21 24
M  V30 24 1 22 25
M  V30 25 2 23 26
M  V30 26 2 25 27
M  V30 27 1 9 11
M  V30 28 1 26 27
M  V30 29 1 6 28
M  V30 30 1 7 29
M  V30 31 1 8 30
M  V30 32 1 10 31
M  V30 33 1 10 32
M  V30 34 1 13 33
M  V30 35 1 13 34
M  V30 36 1 14 35
M  V30 37 1 16 36
M  V30 38 1 16 37
M  V30 39 1 17 38
M  V30 40 1 17 39
M  V30 41 1 18 40
M  V30 42 1 18 41
M  V30 43 1 19 42
M  V30 44 1 19 43
M  V30 45 1 21 44
M  V30 46 1 21 45
M  V30 47 1 22 46
M  V30 48 1 23 47
M  V30 49 1 24 48
M  V30 50 1 24 49
M  V30 51 1 24 50
M  V30 52 1 26 51
M  V30 53 1 27 52
M  V30 END BOND
M  V30 END CTAB
M  END
>  <Molecule Name>
VYDLJENKOXKXDK-HPHMPNDVNA-N

>  <hs_clash>
2.0

>  <hs_total>
85.21230657105752

>  <Total Molweight>
371.440

>  <cLogP>
1.7604

>  <H-Acceptors>
8

>  <H-Donors>
3

>  <Polar Surface Area>
125.86

>  <Non-H Atoms>
27

>  <sp3-Atoms>
8

$$$$
FUDBRAFSKPGJJE-PKSOQXRJNA-N
Actelion Java MolfileCreator 2.0

  0  0  0  0  0  0              0 V3000
M  V30 BEGIN CTAB
M  V30 COUNTS 42 44 0 0 0
M  V30 BEGIN ATOM
M  V30 1 Cl 33.1132 9.114 67.6376 0
M  V30 2 C 32.1261 8.641 66.3024 0
M  V30 3 C 31.8358 9.5379 65.3001 0
M  V30 4 C 31.5926 7.3716 66.3215 0
M  V30 5 N 32.5202 10.8547 65.2199 0
M  V30 6 C 30.9579 9.1547 64.2983 0
M  V30 7 C 30.6899 6.9968 65.3359 0
M  V30 8 C 31.7926 11.859 64.3921 0
M  V30 9 C 33.943 10.7295 64.7906 0
M  V30 10 C 30.3856 7.8953 64.3197 0
M  V30 11 N 30.1036 5.7242 65.4636 0
M  V30 12 C 29.041 5.1495 64.8601 0
M  V30 13 N 28.2619 5.9091 64.0511 0
M  V30 14 N 28.8551 3.8529 65.1263 0
M  V30 15 C 27.2316 5.2876 63.457 0
M  V30 16 C 27.8184 3.276 64.5015 0
M  V30 17 C 26.4602 6.1585 62.55 0
M  V30 18 C 26.9489 3.9437 63.6588 0
M  V30 19 S 27.215 7.6663 62.1148 0
M  V30 20 C 25.2642 6.0079 61.8426 0
M  V30 21 C 25.9153 7.977 61.0045 0
M  V30 22 N 25.0029 7.048 60.9656 0
M  V30 23 C 24.2558 4.919 61.9964 0
M  V30 24 C 25.8637 9.2387 60.2095 0
M  V30 25 H 31.8738 6.6741 67.0965 0
M  V30 26 H 30.72 9.8409 63.4992 0
M  V30 27 H 32.3569 12.803 64.3799 0
M  V30 28 H 31.6885 11.4807 63.3646 0
M  V30 29 H 30.7948 12.0341 64.8212 0
M  V30 30 H 34.4026 11.7278 64.7475 0
M  V30 31 H 34.4898 10.1052 65.5128 0
M  V30 32 H 33.9857 10.2627 63.7959 0
M  V30 33 H 29.696 7.6077 63.5398 0
M  V30 34 H 30.7 5.0629 65.9184 0
M  V30 35 H 27.6516 2.2221 64.6673 0
M  V30 36 H 26.1085 3.4535 63.1901 0
M  V30 37 H 23.3946 5.1212 61.3426 0
M  V30 38 H 24.71 3.9571 61.7177 0
M  V30 39 H 23.9191 4.8764 63.0428 0
M  V30 40 H 24.9592 9.8048 60.4771 0
M  V30 41 H 26.7541 9.8464 60.4283 0
M  V30 42 H 25.8399 8.9955 59.1373 0
M  V30 END ATOM
M  V30 BEGIN BOND
M  V30 1 1 1 2
M  V30 2 2 2 3
M  V30 3 1 2 4
M  V30 4 1 3 5
M  V30 5 1 3 6
M  V30 6 2 4 7
M  V30 7 1 5 8
M  V30 8 1 5 9
M  V30 9 2 6 10
M  V30 10 1 7 11
M  V30 11 1 11 12
M  V30 12 2 12 13
M  V30 13 1 12 14
M  V30 14 1 13 15
M  V30 15 2 14 16
M  V30 16 1 15 17
M  V30 17 2 15 18
M  V30 18 1 17 19
M  V30 19 2 17 20
M  V30 20 1 19 21
M  V30 21 1 20 22
M  V30 22 1 20 23
M  V30 23 1 21 24
M  V30 24 1 7 10
M  V30 25 1 16 18
M  V30 26 2 21 22
M  V30 27 1 4 25
M  V30 28 1 6 26
M  V30 29 1 8 27
M  V30 30 1 8 28
M  V30 31 1 8 29
M  V30 32 1 9 30
M  V30 33 1 9 31
M  V30 34 1 9 32
M  V30 35 1 10 33
M  V30 36 1 11 34
M  V30 37 1 16 35
M  V30 38 1 18 36
M  V30 39 1 23 37
M  V30 40 1 23 38
M  V30 41 1 23 39
M  V30 42 1 24 40
M  V30 43 1 24 41
M  V30 44 1 24 42
M  V30 END BOND
M  V30 END CTAB
M  END
>  <Molecule Name>
FUDBRAFSKPGJJE-PKSOQXRJNA-N

>  <hs_clash>
0.0

>  <hs_total>
84.77786422870801

>  <Total Molweight>
359.884

>  <cLogP>
4.0599

>  <H-Acceptors>
5

>  <H-Donors>
1

>  <Polar Surface Area>
82.18

>  <Non-H Atoms>
24

>  <sp3-Atoms>
5

$$$$
SCACHXWSWJBIHG-IYZPMQHXNA-N
Actelion Java MolfileCreator 2.0

  0  0  0  0  0  0              0 V3000
M  V30 BEGIN CTAB
M  V30 COUNTS 54 56 0 0 0
M  V30 BEGIN ATOM
M  V30 1 O 26.5971 8.4865 59.1859 0
M  V30 2 C 25.7035 8.0924 60.2238 0 CFG=1
M  V30 3 C 25.9005 8.8961 61.5271 0 CFG=1
M  V30 4 C 24.3163 8.2639 59.6524 0
M  V30 5 N 27.218 8.6646 62.1177 0
M  V30 6 C 25.6808 10.3958 61.3468 0
M  V30 7 C 27.4729 7.6251 62.9294 0
M  V30 8 C 25.863 11.1823 62.6164 0
M  V30 9 N 28.687 7.6166 63.5311 0
M  V30 10 N 26.5314 6.66 63.0331 0
M  V30 11 C 29.049 6.5769 64.3022 0
M  V30 12 C 26.9386 5.6378 63.81 0
M  V30 13 N 30.2563 6.5501 64.8735 0
M  V30 14 C 28.1409 5.5315 64.4852 0
M  V30 15 N 26.2353 4.499 64.1419 0
M  V30 16 C 31.3471 7.4362 64.4978 0
M  V30 17 N 28.2301 4.332 65.1935 0
M  V30 18 C 27.0872 3.7571 64.9147 0
M  V30 19 C 24.9142 4.0987 63.6313 0
M  V30 20 C 31.5854 8.4891 65.5516 0
M  V30 21 C 25.0224 3.7967 62.159 0
M  V30 22 C 23.8572 5.152 63.9378 0
M  V30 23 C 31.992 9.7571 65.2116 0
M  V30 24 C 31.3983 8.2218 66.8831 0
M  V30 25 N 32.2061 10.7332 66.102 0
M  V30 26 C 31.6101 9.2019 67.8168 0
M  V30 27 C 32.0032 10.426 67.3935 0
M  V30 28 H 27.4931 8.4006 59.4897 0
M  V30 29 H 25.8546 7.028 60.4552 0
M  V30 30 H 25.1426 8.541 62.2409 0
M  V30 31 H 24.2245 7.6746 58.7285 0
M  V30 32 H 23.5727 7.9159 60.3846 0
M  V30 33 H 24.1407 9.3266 59.4288 0
M  V30 34 H 27.9987 9.1394 61.712 0
M  V30 35 H 24.6558 10.557 60.9811 0
M  V30 36 H 26.3989 10.7665 60.6009 0
M  V30 37 H 25.6907 12.2501 62.4151 0
M  V30 38 H 25.1443 10.8313 63.3716 0
M  V30 39 H 26.8872 11.0409 62.9915 0
M  V30 40 H 30.4932 5.7338 65.3998 0
M  V30 41 H 31.0961 7.9305 63.5479 0
M  V30 42 H 32.2638 6.842 64.3714 0
M  V30 43 H 26.8349 2.7684 65.2688 0
M  V30 44 H 24.6156 3.1714 64.1425 0
M  V30 45 H 24.0371 3.497 61.7724 0
M  V30 46 H 25.3675 4.6945 61.6253 0
M  V30 47 H 25.7412 2.9791 62.0046 0
M  V30 48 H 22.8845 4.8221 63.5437 0
M  V30 49 H 23.783 5.2916 65.0264 0
M  V30 50 H 24.1403 6.1038 63.4648 0
M  V30 51 H 32.1474 9.9788 64.166 0
M  V30 52 H 31.0832 7.2375 67.1967 0
M  V30 53 H 31.4663 9.0021 68.8684 0
M  V30 54 H 32.1618 11.1965 68.1336 0
M  V30 END ATOM
M  V30 BEGIN BOND
M  V30 1 1 1 2
M  V30 2 1 2 3
M  V30 3 1 2 4
M  V30 4 1 3 5
M  V30 5 1 3 6
M  V30 6 1 5 7
M  V30 7 1 6 8
M  V30 8 2 7 9
M  V30 9 1 7 10
M  V30 10 1 9 11
M  V30 11 2 10 12
M  V30 12 1 11 13
M  V30 13 2 11 14
M  V30 14 1 12 15
M  V30 15 1 13 16
M  V30 16 1 14 17
M  V30 17 1 15 18
M  V30 18 1 15 19
M  V30 19 1 16 20
M  V30 20 1 19 21
M  V30 21 1 19 22
M  V30 22 2 20 23
M  V30 23 1 20 24
M  V30 24 1 23 25
M  V30 25 2 24 26
M  V30 26 2 25 27
M  V30 27 1 12 14
M  V30 28 2 17 18
M  V30 29 1 26 27
M  V30 30 1 1 28
M  V30 31 1 2 29
M  V30 32 1 3 30
M  V30 33 1 4 31
M  V30 34 1 4 32
M  V30 35 1 4 33
M  V30 36 1 5 34
M  V30 37 1 6 35
M  V30 38 1 6 36
M  V30 39 1 8 37
M  V30 40 1 8 38
M  V30 41 1 8 39
M  V30 42 1 13 40
M  V30 43 1 16 41
M  V30 44 1 16 42
M  V30 45 1 18 43
M  V30 46 1 19 44
M  V30 47 1 21 45
M  V30 48 1 21 46
M  V30 49 1 21 47
M  V30 50 1 22 48
M  V30 51 1 22 49
M  V30 52 1 22 50
M  V30 53 1 23 51
M  V30 54 1 24 52
M  V30 55 1 26 53
M  V30 56 1 27 54
M  V30 END BOND
M  V30 BEGIN COLLECTION
M  V30 MDLV30/STERAC1 ATOMS=(2 2 3)
M  V30 END COLLECTION
M  V30 END CTAB
M  END
>  <Molecule Name>
SCACHXWSWJBIHG-IYZPMQHXNA-N

>  <hs_clash>
0.0

>  <hs_total>
84.20918111206394

>  <Total Molweight>
369.471

>  <cLogP>
1.9398

>  <H-Acceptors>
8

>  <H-Donors>
3

>  <Polar Surface Area>
100.78

>  <Non-H Atoms>
27

>  <sp3-Atoms>
10

$$$$
RAPSXQPDFJOVLN-UENFXYLWNA-O
Actelion Java MolfileCreator 2.0

  0  0  0  0  0  0              0 V3000
M  V30 BEGIN CTAB
M  V30 COUNTS 46 47 0 0 0
M  V30 BEGIN ATOM
M  V30 1 O 24.069 7.6549 63.1355 0
M  V30 2 N 25.19 8.0658 62.576 0 CHG=1
M  V30 3 O 25.1182 8.8458 61.5144 0 CHG=-1
M  V30 4 C 26.3249 7.7033 63.0571 0
M  V30 5 C 27.487 8.5441 62.9494 0
M  V30 6 C 26.4375 6.4347 63.7164 0
M  V30 7 N 27.4178 9.6959 62.3618 0
M  V30 8 C 28.7206 8.1022 63.4972 0
M  V30 9 C 27.6817 5.9867 64.2693 0
M  V30 10 C 28.5013 10.2039 61.4834 0
M  V30 11 C 28.8421 6.8327 64.1614 0
M  V30 12 C 27.7347 4.7446 64.894 0
M  V30 13 C 28.578 11.7226 61.5939 0
M  V30 14 N 29.9885 6.4454 64.6623 0
M  V30 15 O 28.5132 4.5322 65.7964 0
M  V30 16 N 26.9127 3.7272 64.4827 0
M  V30 17 C 27.8044 12.3537 60.44 0
M  V30 18 C 31.2792 7.1733 64.4659 0
M  V30 19 N 27.6771 13.7727 60.657 0 CHG=1
M  V30 20 C 31.4365 8.2979 65.4703 0
M  V30 21 C 31.8338 9.5818 65.0484 0
M  V30 22 C 31.1881 8.1024 66.8556 0
M  V30 23 N 31.9916 10.6441 65.9115 0
M  V30 24 C 31.3406 9.1773 67.7677 0
M  V30 25 C 31.7422 10.4234 67.2538 0
M  V30 26 H 25.5654 5.803 63.7979 0
M  V30 27 H 26.6063 10.2627 62.5049 0
M  V30 28 H 29.5903 8.7368 63.4132 0
M  V30 29 H 29.4607 9.7653 61.7944 0
M  V30 30 H 28.2901 9.9229 60.4412 0
M  V30 31 H 28.1381 12.0441 62.5496 0
M  V30 32 H 29.6298 12.0415 61.5488 0
M  V30 33 H 29.9548 5.7776 65.4056 0
M  V30 34 H 26.9639 2.8326 64.9264 0
M  V30 35 H 26.2616 3.8802 63.7392 0
M  V30 36 H 28.3433 12.1751 59.4981 0
M  V30 37 H 26.8032 11.9021 60.3809 0
M  V30 38 H 32.1117 6.4651 64.5881 0
M  V30 39 H 31.3019 7.5946 63.4502 0
M  V30 40 H 27.2793 14.2003 59.8454 0
M  V30 41 H 27.0835 13.9377 61.4451 0
M  V30 42 H 28.5799 14.1655 60.832 0
M  V30 43 H 32.0239 9.7415 63.9975 0
M  V30 44 H 30.8818 7.1314 67.2157 0
M  V30 45 H 31.154 9.0437 68.8229 0
M  V30 46 H 31.8621 11.2479 67.9411 0
M  V30 END ATOM
M  V30 BEGIN BOND
M  V30 1 2 1 2
M  V30 2 1 2 3
M  V30 3 1 2 4
M  V30 4 2 4 5
M  V30 5 1 4 6
M  V30 6 1 5 7
M  V30 7 1 5 8
M  V30 8 2 6 9
M  V30 9 1 7 10
M  V30 10 2 8 11
M  V30 11 1 9 12
M  V30 12 1 10 13
M  V30 13 1 11 14
M  V30 14 2 12 15
M  V30 15 1 12 16
M  V30 16 1 13 17
M  V30 17 1 14 18
M  V30 18 1 17 19
M  V30 19 1 18 20
M  V30 20 2 20 21
M  V30 21 1 20 22
M  V30 22 1 21 23
M  V30 23 2 22 24
M  V30 24 2 23 25
M  V30 25 1 9 11
M  V30 26 1 24 25
M  V30 27 1 6 26
M  V30 28 1 7 27
M  V30 29 1 8 28
M  V30 30 1 10 29
M  V30 31 1 10 30
M  V30 32 1 13 31
M  V30 33 1 13 32
M  V30 34 1 14 33
M  V30 35 1 16 34
M  V30 36 1 16 35
M  V30 37 1 17 36
M  V30 38 1 17 37
M  V30 39 1 18 38
M  V30 40 1 18 39
M  V30 41 1 19 40
M  V30 42 1 19 41
M  V30 43 1 19 42
M  V30 44 1 21 43
M  V30 45 1 22 44
M  V30 46 1 24 45
M  V30 47 1 25 46
M  V30 END BOND
M  V30 END CTAB
M  END
>  <Molecule Name>
RAPSXQPDFJOVLN-UENFXYLWNA-O

>  <hs_clash>
0.0

>  <hs_total>
83.97263243572557

>  <Total Molweight>
345.382

>  <cLogP>
-0.4546

>  <H-Acceptors>
9

>  <H-Donors>
4

>  <Polar Surface Area>
153.5

>  <Non-H Atoms>
25

>  <sp3-Atoms>
6

$$$$
CJWWRAGBHVIPTP-PSAQQFEKNA-O
Actelion Java MolfileCreator 2.0

  0  0  0  0  0  0              0 V3000
M  V30 BEGIN CTAB
M  V30 COUNTS 57 59 0 0 0
M  V30 BEGIN ATOM
M  V30 1 O 25.0178 9.4117 62.0788 0
M  V30 2 N 25.0894 8.3102 62.6645 0 CHG=1
M  V30 3 O 24.1018 7.5901 62.8689 0 CHG=-1
M  V30 4 C 26.3201 7.8669 63.1189 0
M  V30 5 C 27.5127 8.6489 62.9246 0
M  V30 6 C 26.4163 6.5983 63.7974 0
M  V30 7 N 27.4555 9.8741 62.2583 0
M  V30 8 C 28.7651 8.1731 63.4127 0
M  V30 9 C 27.6803 6.1134 64.2879 0
M  V30 10 C 27.9548 11.1024 62.8457 0
M  V30 11 C 28.8663 6.9097 64.1001 0
M  V30 12 C 27.7435 4.7948 64.9751 0
M  V30 13 C 29.2056 11.503 62.0893 0
M  V30 14 N 30.1032 6.4571 64.5808 0
M  V30 15 O 28.5435 4.517 65.8497 0
M  V30 16 N 26.8427 3.8424 64.5365 0
M  V30 17 C 29.8912 12.6709 62.7712 0
M  V30 18 C 31.3633 7.202 64.4362 0
M  V30 19 N 31.0805 12.9755 61.9731 0 CHG=1
M  V30 20 C 31.4501 8.3318 65.4635 0
M  V30 21 C 32.2873 13.2922 62.891 0
M  V30 22 C 30.7732 14.1493 61.0028 0
M  V30 23 C 31.1499 8.0927 66.8392 0
M  V30 24 C 31.8293 9.6394 65.0389 0
M  V30 25 C 33.5316 13.6078 62.034 0
M  V30 26 C 32.0164 14.4748 60.1435 0
M  V30 27 N 31.2336 9.1665 67.7684 0
M  V30 28 C 31.9121 10.7146 65.9748 0
M  V30 29 O 33.1906 13.5351 60.517 0
M  V30 30 C 31.6138 10.4772 67.3416 0
M  V30 31 H 25.5266 6.003 63.9404 0
M  V30 32 H 26.8358 9.9505 61.4771 0
M  V30 33 H 29.6529 8.7696 63.2651 0
M  V30 34 H 27.1959 11.8942 62.7599 0
M  V30 35 H 28.1954 10.9391 63.9068 0
M  V30 36 H 29.8965 10.648 62.0551 0
M  V30 37 H 28.9305 11.7937 61.0647 0
M  V30 38 H 30.085 5.7235 65.2599 0
M  V30 39 H 26.849 2.9265 64.9375 0
M  V30 40 H 26.1849 4.0696 63.8185 0
M  V30 41 H 29.2197 13.5418 62.8013 0
M  V30 42 H 30.1809 12.3963 63.7964 0
M  V30 43 H 32.2078 6.5135 64.5859 0
M  V30 44 H 31.4142 7.6307 63.4246 0
M  V30 45 H 31.3152 12.1754 61.4216 0
M  V30 46 H 32.4965 12.4226 63.5312 0
M  V30 47 H 32.0483 14.162 63.5209 0
M  V30 48 H 29.9399 13.866 60.343 0
M  V30 49 H 30.4922 15.0386 61.5865 0
M  V30 50 H 30.8616 7.1063 67.1712 0
M  V30 51 H 32.0558 9.8186 63.9984 0
M  V30 52 H 33.8882 14.6201 62.2754 0
M  V30 53 H 34.321 12.8767 62.2619 0
M  V30 54 H 31.7678 14.3403 59.0807 0
M  V30 55 H 32.3165 15.5183 60.3207 0
M  V30 56 H 32.1999 11.7018 65.6448 0
M  V30 57 H 31.6737 11.284 68.0574 0
M  V30 END ATOM
M  V30 BEGIN BOND
M  V30 1 2 1 2
M  V30 2 1 2 3
M  V30 3 1 2 4
M  V30 4 2 4 5
M  V30 5 1 4 6
M  V30 6 1 5 7
M  V30 7 1 5 8
M  V30 8 2 6 9
M  V30 9 1 7 10
M  V30 10 2 8 11
M  V30 11 1 9 12
M  V30 12 1 10 13
M  V30 13 1 11 14
M  V30 14 2 12 15
M  V30 15 1 12 16
M  V30 16 1 13 17
M  V30 17 1 14 18
M  V30 18 1 17 19
M  V30 19 1 18 20
M  V30 20 1 19 21
M  V30 21 1 19 22
M  V30 22 2 20 23
M  V30 23 1 20 24
M  V30 24 1 21 25
M  V30 25 1 22 26
M  V30 26 1 23 27
M  V30 27 2 24 28
M  V30 28 1 25 29
M  V30 29 2 27 30
M  V30 30 1 9 11
M  V30 31 1 26 29
M  V30 32 1 28 30
M  V30 33 1 6 31
M  V30 34 1 7 32
M  V30 35 1 8 33
M  V30 36 1 10 34
M  V30 37 1 10 35
M  V30 38 1 13 36
M  V30 39 1 13 37
M  V30 40 1 14 38
M  V30 41 1 16 39
M  V30 42 1 16 40
M  V30 43 1 17 41
M  V30 44 1 17 42
M  V30 45 1 18 43
M  V30 46 1 18 44
M  V30 47 1 19 45
M  V30 48 1 21 46
M  V30 49 1 21 47
M  V30 50 1 22 48
M  V30 51 1 22 49
M  V30 52 1 23 50
M  V30 53 1 24 51
M  V30 54 1 25 52
M  V30 55 1 25 53
M  V30 56 1 26 54
M  V30 57 1 26 55
M  V30 58 1 28 56
M  V30 59 1 30 57
M  V30 END BOND
M  V30 END CTAB
M  END
>  <Molecule Name>
CJWWRAGBHVIPTP-PSAQQFEKNA-O

>  <hs_clash>
62.0

>  <hs_total>
82.53337532550907

>  <Total Molweight>
415.472

>  <cLogP>
-1.1352

>  <H-Acceptors>
10

>  <H-Donors>
4

>  <Polar Surface Area>
139.53

>  <Non-H Atoms>
30

>  <sp3-Atoms>
11

$$$$
NDUVSANREQEDRE-BRJTYTCONA-N
Actelion Java MolfileCreator 2.0

  0  0  0  0  0  0              0 V3000
M  V30 BEGIN CTAB
M  V30 COUNTS 53 55 0 0 0
M  V30 BEGIN ATOM
M  V30 1 O 30.3479 9.9865 64.3026 0
M  V30 2 C 31.0166 9.8739 65.5025 0
M  V30 3 C 31.5939 8.6241 65.8478 0
M  V30 4 C 31.1516 10.9738 66.4005 0
M  V30 5 C 32.27 8.4378 67.0789 0
M  V30 6 C 31.402 7.4912 64.8966 0
M  V30 7 C 31.8457 10.8026 67.6392 0
M  V30 8 C 32.404 9.5347 67.9769 0
M  V30 9 N 30.4083 6.6309 65.0283 0
M  V30 10 C 29.2994 6.6061 64.5097 0
M  V30 11 N 28.9001 7.6931 63.7328 0
M  V30 12 C 28.3917 5.549 64.6537 0
M  V30 13 C 27.7169 7.7884 63.0601 0
M  V30 14 N 28.3804 4.3572 65.2792 0
M  V30 15 C 27.135 5.6761 63.9506 0
M  V30 16 N 26.8286 6.7652 63.1708 0
M  V30 17 N 27.4778 8.8268 62.3291 0
M  V30 18 C 27.2488 3.7509 65.0099 0
M  V30 19 N 26.4272 4.5254 64.1903 0
M  V30 20 C 26.3072 9.0228 61.4038 0 CFG=2
M  V30 21 C 25.0581 4.1954 63.6417 0
M  V30 22 C 25.7693 7.7519 60.6405 0
M  V30 23 C 25.1867 9.7552 62.2373 0
M  V30 24 C 23.936 5.2512 63.7734 0
M  V30 25 C 25.2165 3.8379 62.1752 0
M  V30 26 O 26.6243 7.1521 59.6629 0
M  V30 27 C 25.2617 11.2836 62.4987 0
M  V30 28 H 29.821 9.2089 64.1593 0
M  V30 29 H 30.7298 11.935 66.1456 0
M  V30 30 H 32.6803 7.4721 67.334 0
M  V30 31 H 31.2905 7.9414 63.8992 0
M  V30 32 H 32.3289 6.8999 64.9306 0
M  V30 33 H 31.9473 11.6349 68.32 0
M  V30 34 H 32.9276 9.4064 68.9127 0
M  V30 35 H 30.4908 6.0399 65.8306 0
M  V30 36 H 28.3111 9.2724 62.002 0
M  V30 37 H 26.9848 2.7704 65.378 0
M  V30 38 H 26.6266 9.7345 60.6281 0
M  V30 39 H 24.7076 3.2912 64.1608 0
M  V30 40 H 25.5456 6.9849 61.3967 0
M  V30 41 H 24.8401 8.0446 60.1293 0
M  V30 42 H 24.2364 9.5729 61.714 0
M  V30 43 H 25.1609 9.2692 63.2237 0
M  V30 44 H 23.0094 4.8597 63.3284 0
M  V30 45 H 23.7657 5.4746 64.8371 0
M  V30 46 H 24.2344 6.1709 63.249 0
M  V30 47 H 24.2327 3.5925 61.7487 0
M  V30 48 H 25.6476 4.6931 61.6341 0
M  V30 49 H 25.8845 2.9693 62.0801 0
M  V30 50 H 26.1877 6.4013 59.2781 0
M  V30 51 H 24.3919 11.5978 63.0946 0
M  V30 52 H 26.1855 11.5166 63.0484 0
M  V30 53 H 25.2611 11.8203 61.5385 0
M  V30 END ATOM
M  V30 BEGIN BOND
M  V30 1 1 1 2
M  V30 2 2 2 3
M  V30 3 1 2 4
M  V30 4 1 3 5
M  V30 5 1 3 6
M  V30 6 2 4 7
M  V30 7 2 5 8
M  V30 8 1 6 9
M  V30 9 1 9 10
M  V30 10 2 10 11
M  V30 11 1 10 12
M  V30 12 1 11 13
M  V30 13 1 12 14
M  V30 14 2 12 15
M  V30 15 2 13 16
M  V30 16 1 13 17
M  V30 17 2 14 18
M  V30 18 1 15 19
M  V30 19 1 17 20
M  V30 20 1 19 21
M  V30 21 1 20 22
M  V30 22 1 20 23
M  V30 23 1 21 24
M  V30 24 1 21 25
M  V30 25 1 22 26
M  V30 26 1 23 27
M  V30 27 1 7 8
M  V30 28 1 15 16
M  V30 29 1 18 19
M  V30 30 1 1 28
M  V30 31 1 4 29
M  V30 32 1 5 30
M  V30 33 1 6 31
M  V30 34 1 6 32
M  V30 35 1 7 33
M  V30 36 1 8 34
M  V30 37 1 9 35
M  V30 38 1 17 36
M  V30 39 1 18 37
M  V30 40 1 20 38
M  V30 41 1 21 39
M  V30 42 1 22 40
M  V30 43 1 22 41
M  V30 44 1 23 42
M  V30 45 1 23 43
M  V30 46 1 24 44
M  V30 47 1 24 45
M  V30 48 1 24 46
M  V30 49 1 25 47
M  V30 50 1 25 48
M  V30 51 1 25 49
M  V30 52 1 26 50
M  V30 53 1 27 51
M  V30 54 1 27 52
M  V30 55 1 27 53
M  V30 END BOND
M  V30 BEGIN COLLECTION
M  V30 MDLV30/STERAC1 ATOMS=(1 20)
M  V30 END COLLECTION
M  V30 END CTAB
M  END
>  <Molecule Name>
NDUVSANREQEDRE-BRJTYTCONA-N

>  <hs_clash>
0.0

>  <hs_total>
82.36009061569534

>  <Total Molweight>
370.455

>  <cLogP>
2.2357

>  <H-Acceptors>
8

>  <H-Donors>
4

>  <Polar Surface Area>
108.12

>  <Non-H Atoms>
27

>  <sp3-Atoms>
10

$$$$
UERTXDNWFMBKLO-BUDVQIAPNA-N
Actelion Java MolfileCreator 2.0

  0  0  0  0  0  0              0 V3000
M  V30 BEGIN CTAB
M  V30 COUNTS 41 43 0 0 0
M  V30 BEGIN ATOM
M  V30 1 S 33.2771 10.6178 64.7858 0
M  V30 2 O 34.3 10.2037 63.8804 0
M  V30 3 O 33.8755 11.0233 66.0531 0
M  V30 4 N 32.4076 11.8765 64.0893 0
M  V30 5 C 32.2203 9.2223 65.0694 0
M  V30 6 C 32.3785 8.4585 66.2544 0
M  V30 7 C 31.2302 8.8749 64.1132 0
M  V30 8 C 31.5493 7.3348 66.489 0
M  V30 9 C 30.3931 7.7472 64.344 0
M  V30 10 C 30.5482 6.9579 65.5477 0
M  V30 11 N 29.8293 5.9066 65.8377 0
M  V30 12 C 28.8034 5.4102 65.199 0
M  V30 13 S 27.7348 6.3086 64.1689 0
M  V30 14 N 28.5191 4.132 65.3231 0
M  V30 15 C 26.8207 4.8697 63.8721 0
M  V30 16 C 27.3965 3.8156 64.5751 0
M  V30 17 C 25.7042 4.8214 63.0568 0
M  V30 18 N 26.9401 2.6324 64.5476 0
M  V30 19 O 25.0981 3.7646 62.8754 0
M  V30 20 N 25.2864 6.0121 62.4585 0
M  V30 21 C 24.2055 6.1871 61.6259 0
M  V30 22 C 23.0204 5.3805 61.7264 0
M  V30 23 C 24.2664 7.2149 60.6428 0
M  V30 24 C 21.9223 5.6028 60.8501 0
M  V30 25 C 23.1614 7.4413 59.7666 0
M  V30 26 F 20.8355 4.8497 60.9508 0
M  V30 27 C 21.9914 6.632 59.8741 0
M  V30 28 H 33.0139 12.4196 63.5083 0
M  V30 29 H 31.6634 11.5023 63.5359 0
M  V30 30 H 33.1313 8.734 66.978 0
M  V30 31 H 31.1128 9.4632 63.2151 0
M  V30 32 H 31.6772 6.7567 67.3924 0
M  V30 33 H 29.6392 7.4794 63.6185 0
M  V30 34 H 30.3729 5.1938 66.2808 0
M  V30 35 H 26.001 2.6284 64.8915 0
M  V30 36 H 27.5074 2.0424 65.1222 0
M  V30 37 H 25.8322 6.8263 62.657 0
M  V30 38 H 22.963 4.601 62.4716 0
M  V30 39 H 25.1525 7.8267 60.5592 0
M  V30 40 H 23.2115 8.2241 59.0242 0
M  V30 41 H 21.1559 6.8024 59.2111 0
M  V30 END ATOM
M  V30 BEGIN BOND
M  V30 1 2 1 2
M  V30 2 2 1 3
M  V30 3 1 1 4
M  V30 4 1 1 5
M  V30 5 2 5 6
M  V30 6 1 5 7
M  V30 7 1 6 8
M  V30 8 2 7 9
M  V30 9 2 8 10
M  V30 10 1 10 11
M  V30 11 1 11 12
M  V30 12 1 12 13
M  V30 13 2 12 14
M  V30 14 1 13 15
M  V30 15 1 14 16
M  V30 16 1 15 17
M  V30 17 1 16 18
M  V30 18 2 17 19
M  V30 19 1 17 20
M  V30 20 1 20 21
M  V30 21 2 21 22
M  V30 22 1 21 23
M  V30 23 1 22 24
M  V30 24 2 23 25
M  V30 25 1 24 26
M  V30 26 2 24 27
M  V30 27 1 9 10
M  V30 28 2 15 16
M  V30 29 1 25 27
M  V30 30 1 4 28
M  V30 31 1 4 29
M  V30 32 1 6 30
M  V30 33 1 7 31
M  V30 34 1 8 32
M  V30 35 1 9 33
M  V30 36 1 11 34
M  V30 37 1 18 35
M  V30 38 1 18 36
M  V30 39 1 20 37
M  V30 40 1 22 38
M  V30 41 1 23 39
M  V30 42 1 25 40
M  V30 43 1 27 41
M  V30 END BOND
M  V30 END CTAB
M  END
>  <Molecule Name>
UERTXDNWFMBKLO-BUDVQIAPNA-N

>  <hs_clash>
13.0

>  <hs_total>
81.57204418640325

>  <Total Molweight>
407.449

>  <cLogP>
2.5839

>  <H-Acceptors>
8

>  <H-Donors>
4

>  <Polar Surface Area>
176.82

>  <Non-H Atoms>
27

>  <sp3-Atoms>
1

$$$$
JJDRRZFRTKZLFT-GPQMBLKYNA-N
Actelion Java MolfileCreator 2.0

  0  0  0  0  0  0              0 V3000
M  V30 BEGIN CTAB
M  V30 COUNTS 35 37 0 0 0
M  V30 BEGIN ATOM
M  V30 1 S 27.1112 7.181 61.8997 0
M  V30 2 C 26.3592 5.7418 62.5121 0
M  V30 3 C 25.8171 7.5369 60.9271 0
M  V30 4 C 27.1351 5.0004 63.461 0
M  V30 5 C 25.1016 5.6339 61.8921 0
M  V30 6 N 24.8248 6.6668 60.9991 0
M  V30 7 C 25.8574 8.7655 60.0698 0
M  V30 8 N 28.1569 5.6546 64.0707 0
M  V30 9 C 26.8936 3.6233 63.7668 0
M  V30 10 C 24.0247 4.5646 62.0556 0
M  V30 11 C 28.9181 5.027 64.9337 0
M  V30 12 C 27.7649 3.0293 64.7095 0
M  V30 13 N 28.7594 3.7464 65.269 0
M  V30 14 N 30.0184 5.6471 65.5896 0
M  V30 15 C 30.7012 6.9086 65.2813 0
M  V30 16 C 30.3764 7.8303 64.2169 0
M  V30 17 C 31.7855 7.2296 66.1313 0
M  V30 18 C 31.1274 9.0236 64.0297 0
M  V30 19 C 32.5416 8.416 65.9471 0
M  V30 20 O 30.8426 9.9191 63.0405 0
M  V30 21 C 32.2049 9.307 64.8966 0
M  V30 22 H 26.709 8.7018 59.3768 0
M  V30 23 H 24.9223 8.8431 59.496 0
M  V30 24 H 25.9704 9.6545 60.7084 0
M  V30 25 H 26.0908 3.0687 63.3036 0
M  V30 26 H 23.695 4.5326 63.1047 0
M  V30 27 H 23.1675 4.8058 61.4095 0
M  V30 28 H 24.4347 3.5848 61.7702 0
M  V30 29 H 27.632 1.9932 64.9832 0
M  V30 30 H 30.648 4.971 65.972 0
M  V30 31 H 29.5522 7.6103 63.5547 0
M  V30 32 H 32.0431 6.558 66.9367 0
M  V30 33 H 33.3693 8.6394 66.6038 0
M  V30 34 H 31.4551 10.6441 63.0832 0
M  V30 35 H 32.7787 10.2118 64.7585 0
M  V30 END ATOM
M  V30 BEGIN BOND
M  V30 1 1 1 2
M  V30 2 1 1 3
M  V30 3 1 2 4
M  V30 4 2 2 5
M  V30 5 2 3 6
M  V30 6 1 3 7
M  V30 7 2 4 8
M  V30 8 1 4 9
M  V30 9 1 5 10
M  V30 10 1 8 11
M  V30 11 2 9 12
M  V30 12 2 11 13
M  V30 13 1 11 14
M  V30 14 1 14 15
M  V30 15 2 15 16
M  V30 16 1 15 17
M  V30 17 1 16 18
M  V30 18 2 17 19
M  V30 19 1 18 20
M  V30 20 2 18 21
M  V30 21 1 5 6
M  V30 22 1 12 13
M  V30 23 1 19 21
M  V30 24 1 7 22
M  V30 25 1 7 23
M  V30 26 1 7 24
M  V30 27 1 9 25
M  V30 28 1 10 26
M  V30 29 1 10 27
M  V30 30 1 10 28
M  V30 31 1 12 29
M  V30 32 1 14 30
M  V30 33 1 16 31
M  V30 34 1 17 32
M  V30 35 1 19 33
M  V30 36 1 20 34
M  V30 37 1 21 35
M  V30 END BOND
M  V30 END CTAB
M  END
>  <Molecule Name>
JJDRRZFRTKZLFT-GPQMBLKYNA-N

>  <hs_clash>
0.0

>  <hs_total>
81.44519497382225

>  <Total Molweight>
298.369

>  <cLogP>
3.2118

>  <H-Acceptors>
5

>  <H-Donors>
2

>  <Polar Surface Area>
99.17

>  <Non-H Atoms>
21

>  <sp3-Atoms>
3

$$$$
STRAQIMXXYJKPS-CLRGVMNRNA-N
Actelion Java MolfileCreator 2.0

  0  0  0  0  0  0              0 V3000
M  V30 BEGIN CTAB
M  V30 COUNTS 42 43 0 0 0
M  V30 BEGIN ATOM
M  V30 1 O 23.8907 7.2212 63.1617 0
M  V30 2 N 24.9891 7.8483 62.7978 0 CHG=1
M  V30 3 O 24.8761 8.878 61.9855 0 CHG=-1
M  V30 4 C 26.1373 7.4597 63.2277 0
M  V30 5 C 27.3033 8.2788 63.0643 0
M  V30 6 C 26.2635 6.1839 63.8846 0
M  V30 7 N 27.2212 9.4389 62.4759 0
M  V30 8 C 28.5535 7.8232 63.5493 0
M  V30 9 C 27.5306 5.7172 64.3787 0
M  V30 10 C 28.2499 9.9029 61.5091 0
M  V30 11 C 28.7028 6.5531 64.21 0
M  V30 12 C 27.5893 4.467 64.999 0
M  V30 13 C 28.8572 11.2085 62.0022 0
M  V30 14 N 29.8809 6.1472 64.6544 0
M  V30 15 O 28.4245 4.2098 65.8497 0
M  V30 16 N 26.7002 3.4901 64.6542 0
M  V30 17 O 27.8396 12.1689 62.1379 0
M  V30 18 C 31.1846 6.8703 64.4723 0
M  V30 19 C 31.2509 8.0696 65.3943 0
M  V30 20 C 31.51 9.3536 64.9141 0
M  V30 21 C 31.0373 7.9875 66.7753 0
M  V30 22 N 31.5566 10.466 65.7008 0
M  V30 23 N 31.0726 9.0675 67.6091 0
M  V30 24 C 31.3288 10.2676 67.0338 0
M  V30 25 N 31.3575 11.2951 67.7999 0
M  V30 26 H 25.3875 5.5645 64.0086 0
M  V30 27 H 26.604 10.1217 62.8677 0
M  V30 28 H 29.4237 8.4497 63.4192 0
M  V30 29 H 29.0388 9.1417 61.4203 0
M  V30 30 H 27.7829 10.0636 60.5263 0
M  V30 31 H 29.3408 11.0449 62.9764 0
M  V30 32 H 29.604 11.5639 61.2772 0
M  V30 33 H 29.8647 5.4393 65.3606 0
M  V30 34 H 26.7456 2.5942 65.0958 0
M  V30 35 H 26.0033 3.6707 63.9602 0
M  V30 36 H 27.3286 12.2049 61.3379 0
M  V30 37 H 32.0145 6.187 64.7049 0
M  V30 38 H 31.2696 7.209 63.4292 0
M  V30 39 H 31.6838 9.4735 63.8552 0
M  V30 40 H 30.8336 7.0177 67.2041 0
M  V30 41 H 31.1765 11.014 68.7426 0
M  V30 42 H 32.2588 11.7251 67.7482 0
M  V30 END ATOM
M  V30 BEGIN BOND
M  V30 1 2 1 2
M  V30 2 1 2 3
M  V30 3 1 2 4
M  V30 4 2 4 5
M  V30 5 1 4 6
M  V30 6 1 5 7
M  V30 7 1 5 8
M  V30 8 2 6 9
M  V30 9 1 7 10
M  V30 10 2 8 11
M  V30 11 1 9 12
M  V30 12 1 10 13
M  V30 13 1 11 14
M  V30 14 2 12 15
M  V30 15 1 12 16
M  V30 16 1 13 17
M  V30 17 1 14 18
M  V30 18 1 18 19
M  V30 19 2 19 20
M  V30 20 1 19 21
M  V30 21 1 20 22
M  V30 22 2 21 23
M  V30 23 2 22 24
M  V30 24 1 24 25
M  V30 25 1 9 11
M  V30 26 1 23 24
M  V30 27 1 6 26
M  V30 28 1 7 27
M  V30 29 1 8 28
M  V30 30 1 10 29
M  V30 31 1 10 30
M  V30 32 1 13 31
M  V30 33 1 13 32
M  V30 34 1 14 33
M  V30 35 1 16 34
M  V30 36 1 16 35
M  V30 37 1 17 36
M  V30 38 1 18 37
M  V30 39 1 18 38
M  V30 40 1 20 39
M  V30 41 1 21 40
M  V30 42 1 25 41
M  V30 43 1 25 42
M  V30 END BOND
M  V30 END CTAB
M  END
>  <Molecule Name>
STRAQIMXXYJKPS-CLRGVMNRNA-N

>  <hs_clash>
0.0

>  <hs_total>
81.30524149150465

>  <Total Molweight>
347.334

>  <cLogP>
-1.854

>  <H-Acceptors>
11

>  <H-Donors>
5

>  <Polar Surface Area>
185

>  <Non-H Atoms>
25

>  <sp3-Atoms>
5

$$$$
BOQCFLZSDDGZTL-VMYGLABINA-N
Actelion Java MolfileCreator 2.0

  0  0  0  0  0  0              0 V3000
M  V30 BEGIN CTAB
M  V30 COUNTS 42 43 0 0 0
M  V30 BEGIN ATOM
M  V30 1 S 33.17 10.7934 64.5685 0
M  V30 2 O 34.2558 10.2232 63.7768 0
M  V30 3 O 33.6711 11.3269 65.905 0
M  V30 4 N 32.4136 11.992 63.8044 0
M  V30 5 C 32.1368 9.4211 64.8893 0
M  V30 6 C 30.9951 9.1644 64.1358 0
M  V30 7 C 32.5004 8.5846 65.9288 0
M  V30 8 C 30.1575 8.0945 64.3729 0
M  V30 9 C 31.6876 7.474 66.1193 0
M  V30 10 C 30.5032 7.2299 65.4078 0
M  V30 11 N 29.861 6.0939 65.6657 0
M  V30 12 C 28.786 5.5379 65.0733 0
M  V30 13 N 27.9791 6.2625 64.2674 0
M  V30 14 N 28.4566 4.2636 65.3874 0
M  V30 15 C 26.9039 5.7584 63.6773 0
M  V30 16 C 27.336 3.6932 64.8475 0
M  V30 17 N 26.1836 6.5533 62.8478 0
M  V30 18 C 26.5334 4.4257 63.9663 0
M  V30 19 C 26.7573 7.804 62.2928 0 CFG=2
M  V30 20 C 26.1032 8.0745 60.9047 0 CFG=1
M  V30 21 C 26.4075 9.0277 63.1379 0
M  V30 22 O 24.6499 8.2253 61.1182 0
M  V30 23 C 26.3623 6.8605 60.1714 0
M  V30 24 H 33.0675 12.4895 63.2346 0
M  V30 25 H 31.6886 11.6154 63.228 0
M  V30 26 H 30.7528 9.8366 63.326 0
M  V30 27 H 33.3599 8.782 66.5522 0
M  V30 28 H 29.2694 7.934 63.7796 0
M  V30 29 H 31.9871 6.7513 66.8638 0
M  V30 30 H 30.4885 5.3937 66.0056 0
M  V30 31 H 27.071 2.6777 65.1019 0
M  V30 32 H 25.1911 6.4324 62.818 0
M  V30 33 H 25.6547 3.9847 63.5191 0
M  V30 34 H 27.8481 7.7184 62.181 0
M  V30 35 H 26.5461 8.9613 60.4282 0
M  V30 36 H 26.8371 8.9141 64.1443 0
M  V30 37 H 26.8191 9.9307 62.6636 0
M  V30 38 H 25.3141 9.12 63.2148 0
M  V30 39 H 24.1928 8.0889 60.2967 0
M  V30 40 H 27.4453 6.7508 60.014 0
M  V30 41 H 25.9858 5.9995 60.7431 0
M  V30 42 H 25.8528 6.9049 59.1975 0
M  V30 END ATOM
M  V30 BEGIN BOND
M  V30 1 2 1 2
M  V30 2 2 1 3
M  V30 3 1 1 4
M  V30 4 1 1 5
M  V30 5 2 5 6
M  V30 6 1 5 7
M  V30 7 1 6 8
M  V30 8 2 7 9
M  V30 9 2 8 10
M  V30 10 1 10 11
M  V30 11 1 11 12
M  V30 12 2 12 13
M  V30 13 1 12 14
M  V30 14 1 13 15
M  V30 15 2 14 16
M  V30 16 1 15 17
M  V30 17 2 15 18
M  V30 18 1 17 19
M  V30 19 1 19 20
M  V30 20 1 19 21
M  V30 21 1 20 22
M  V30 22 1 20 23
M  V30 23 1 9 10
M  V30 24 1 16 18
M  V30 25 1 4 24
M  V30 26 1 4 25
M  V30 27 1 6 26
M  V30 28 1 7 27
M  V30 29 1 8 28
M  V30 30 1 9 29
M  V30 31 1 11 30
M  V30 32 1 16 31
M  V30 33 1 17 32
M  V30 34 1 18 33
M  V30 35 1 19 34
M  V30 36 1 20 35
M  V30 37 1 21 36
M  V30 38 1 21 37
M  V30 39 1 21 38
M  V30 40 1 22 39
M  V30 41 1 23 40
M  V30 42 1 23 41
M  V30 43 1 23 42
M  V30 END BOND
M  V30 BEGIN COLLECTION
M  V30 MDLV30/STERAC1 ATOMS=(2 19 20)
M  V30 END COLLECTION
M  V30 END CTAB
M  END
>  <Molecule Name>
BOQCFLZSDDGZTL-VMYGLABINA-N

>  <hs_clash>
4.0

>  <hs_total>
81.22983916012288

>  <Total Molweight>
337.403

>  <cLogP>
0.9569

>  <H-Acceptors>
8

>  <H-Donors>
4

>  <Polar Surface Area>
138.61

>  <Non-H Atoms>
23

>  <sp3-Atoms>
6

$$$$
VKUXBRRQHBTQPW-GJEATFQINA-O
Actelion Java MolfileCreator 2.0

  0  0  0  0  0  0              0 V3000
M  V30 BEGIN CTAB
M  V30 COUNTS 53 56 0 0 0
M  V30 BEGIN ATOM
M  V30 1 O 31.5659 10.7368 64.7484 0
M  V30 2 C 31.081 9.4681 64.9504 0
M  V30 3 C 30.8267 11.6383 63.9167 0
M  V30 4 C 30.0048 8.9795 64.234 0
M  V30 5 C 31.6991 8.648 65.8687 0
M  V30 6 C 31.2959 13.0377 64.2072 0
M  V30 7 N 29.5093 7.7483 64.423 0
M  V30 8 C 31.2052 7.3782 66.0726 0
M  V30 9 C 31.6006 13.284 65.672 0
M  V30 10 C 30.0992 6.9647 65.3337 0
M  V30 11 N 30.9398 14.4649 66.2199 0 CHG=1
M  V30 12 N 29.5812 5.703 65.5549 0
M  V30 13 C 31.806 15.6294 66.1286 0
M  V30 14 C 30.554 14.2473 67.6056 0
M  V30 15 C 28.5594 4.9987 64.9444 0
M  V30 16 N 28.5531 3.7014 65.2677 0
M  V30 17 C 27.5971 5.5768 64.1126 0
M  V30 18 C 27.5711 2.9852 64.7239 0
M  V30 19 C 26.6648 4.6873 63.5768 0
M  V30 20 N 26.6075 3.3933 63.8965 0
M  V30 21 N 25.6076 5.1351 62.7323 0
M  V30 22 C 25.6232 6.2535 61.8935 0
M  V30 23 C 24.4075 4.4976 62.4963 0
M  V30 24 C 24.3964 6.2383 61.2369 0
M  V30 25 C 26.5544 7.2617 61.6834 0
M  V30 26 N 23.6543 5.1306 61.6286 0
M  V30 27 C 24.0973 7.254 60.3304 0
M  V30 28 C 26.2335 8.2631 60.7795 0
M  V30 29 C 25.0243 8.2621 60.1203 0
M  V30 30 H 29.7522 11.5527 64.1377 0
M  V30 31 H 31.0035 11.3982 62.8582 0
M  V30 32 H 29.5445 9.6152 63.4921 0
M  V30 33 H 32.5594 8.9961 66.4212 0
M  V30 34 H 30.5101 13.7407 63.8927 0
M  V30 35 H 32.21 13.2258 63.6253 0
M  V30 36 H 31.6661 6.7167 66.7913 0
M  V30 37 H 31.2731 12.4052 66.2472 0
M  V30 38 H 32.6873 13.4112 65.7839 0
M  V30 39 H 30.1136 14.6415 65.685 0
M  V30 40 H 30.1841 5.123 66.1027 0
M  V30 41 H 31.2885 16.5059 66.5464 0
M  V30 42 H 32.7298 15.4446 66.6961 0
M  V30 43 H 32.0548 15.8193 65.0741 0
M  V30 44 H 29.8988 13.3661 67.6702 0
M  V30 45 H 31.4541 14.0805 68.215 0
M  V30 46 H 30.0166 15.1315 67.9799 0
M  V30 47 H 27.576 6.6356 63.8999 0
M  V30 48 H 27.5522 1.9379 64.9871 0
M  V30 49 H 24.1181 3.5739 62.9756 0
M  V30 50 H 27.4988 7.2659 62.2073 0
M  V30 51 H 23.1565 7.2554 59.7997 0
M  V30 52 H 26.942 9.0559 60.5898 0
M  V30 53 H 24.7954 9.0593 59.4286 0
M  V30 END ATOM
M  V30 BEGIN BOND
M  V30 1 1 1 2
M  V30 2 1 1 3
M  V30 3 2 2 4
M  V30 4 1 2 5
M  V30 5 1 3 6
M  V30 6 1 4 7
M  V30 7 2 5 8
M  V30 8 1 6 9
M  V30 9 2 7 10
M  V30 10 1 9 11
M  V30 11 1 10 12
M  V30 12 1 11 13
M  V30 13 1 11 14
M  V30 14 1 12 15
M  V30 15 2 15 16
M  V30 16 1 15 17
M  V30 17 1 16 18
M  V30 18 2 17 19
M  V30 19 2 18 20
M  V30 20 1 19 21
M  V30 21 1 21 22
M  V30 22 1 21 23
M  V30 23 2 22 24
M  V30 24 1 22 25
M  V30 25 2 23 26
M  V30 26 1 24 27
M  V30 27 2 25 28
M  V30 28 2 27 29
M  V30 29 1 8 10
M  V30 30 1 19 20
M  V30 31 1 24 26
M  V30 32 1 28 29
M  V30 33 1 3 30
M  V30 34 1 3 31
M  V30 35 1 4 32
M  V30 36 1 5 33
M  V30 37 1 6 34
M  V30 38 1 6 35
M  V30 39 1 8 36
M  V30 40 1 9 37
M  V30 41 1 9 38
M  V30 42 1 11 39
M  V30 43 1 12 40
M  V30 44 1 13 41
M  V30 45 1 13 42
M  V30 46 1 13 43
M  V30 47 1 14 44
M  V30 48 1 14 45
M  V30 49 1 14 46
M  V30 50 1 17 47
M  V30 51 1 18 48
M  V30 52 1 23 49
M  V30 53 1 25 50
M  V30 54 1 27 51
M  V30 55 1 28 52
M  V30 56 1 29 53
M  V30 END BOND
M  V30 END CTAB
M  END
>  <Molecule Name>
VKUXBRRQHBTQPW-GJEATFQINA-O

>  <hs_clash>
7.0

>  <hs_total>
80.1168127042628

>  <Total Molweight>
390.470

>  <cLogP>
2.5486

>  <H-Acceptors>
8

>  <H-Donors>
2

>  <Polar Surface Area>
82.19

>  <Non-H Atoms>
29

>  <sp3-Atoms>
7

$$$$
XHEQSRJCJTWWAH-PWIKPTQSNA-N
Actelion Java MolfileCreator 2.0

  0  0  0  0  0  0              0 V3000
M  V30 BEGIN CTAB
M  V30 COUNTS 61 64 0 0 0
M  V30 BEGIN ATOM
M  V30 1 O 34.3393 10.7333 64.3224 0
M  V30 2 C 33.2159 10.9582 64.7742 0
M  V30 3 N 32.7649 12.2034 65.0059 0
M  V30 4 C 32.4099 9.7239 64.9906 0
M  V30 5 C 33.7175 13.2428 65.4044 0
M  V30 6 C 31.3745 12.6591 64.8743 0
M  V30 7 C 31.3502 9.497 64.1231 0
M  V30 8 C 32.7353 8.7926 65.9685 0
M  V30 9 C 34.3812 13.8678 64.1894 0
M  V30 10 C 31.1571 13.2082 63.4848 0
M  V30 11 C 30.5882 8.3578 64.2463 0
M  V30 12 C 31.9743 7.6317 66.0942 0
M  V30 13 C 30.8799 7.4067 65.23 0
M  V30 14 N 30.1391 6.2909 65.4127 0
M  V30 15 C 28.9757 5.9855 64.8094 0
M  V30 16 N 28.2447 6.8448 64.0548 0
M  V30 17 N 28.5593 4.725 64.9635 0
M  V30 18 C 27.1155 6.4405 63.4471 0
M  V30 19 C 27.4384 4.2904 64.3984 0
M  V30 20 O 26.3706 7.2823 62.6701 0
M  V30 21 C 26.6934 5.1373 63.6242 0
M  V30 22 N 26.8496 3.1065 64.3981 0
M  V30 23 C 26.8074 8.618 62.3466 0
M  V30 24 N 25.6381 4.4478 63.165 0
M  V30 25 C 25.7428 3.1994 63.6342 0
M  V30 26 C 25.8861 9.2726 61.313 0
M  V30 27 C 25.8601 8.4805 59.9936 0
M  V30 28 C 26.3591 10.7015 61.0478 0
M  V30 29 C 24.916 9.1536 58.9891 0
M  V30 30 C 25.5513 11.3871 59.9399 0
M  V30 31 C 25.4025 10.5573 58.662 0
M  V30 32 H 34.4907 12.7953 66.0461 0
M  V30 33 H 33.1837 14.0246 65.9648 0
M  V30 34 H 31.1744 13.4467 65.6159 0
M  V30 35 H 30.693 11.8128 65.0457 0
M  V30 36 H 31.1233 10.216 63.3499 0
M  V30 37 H 33.5727 8.9673 66.6276 0
M  V30 38 H 35.0899 14.643 64.5161 0
M  V30 39 H 34.9204 13.0919 63.6267 0
M  V30 40 H 33.6134 14.3213 63.5451 0
M  V30 41 H 30.1163 13.5504 63.3838 0
M  V30 42 H 31.8388 14.0545 63.3143 0
M  V30 43 H 31.3574 12.4206 62.744 0
M  V30 44 H 29.7564 8.1966 63.577 0
M  V30 45 H 32.2217 6.9039 66.8529 0
M  V30 46 H 30.6109 5.5269 65.8525 0
M  V30 47 H 27.8276 8.5717 61.9384 0
M  V30 48 H 26.8063 9.2266 63.263 0
M  V30 49 H 24.908 4.8018 62.5804 0
M  V30 50 H 25.0513 2.3948 63.4331 0
M  V30 51 H 24.8655 9.3082 61.722 0
M  V30 52 H 25.5095 7.4569 60.1918 0
M  V30 53 H 26.8749 8.4455 59.5714 0
M  V30 54 H 27.417 10.6737 60.7486 0
M  V30 55 H 26.2553 11.286 61.9741 0
M  V30 56 H 23.9067 9.2119 59.4228 0
M  V30 57 H 24.8841 8.5567 58.0658 0
M  V30 58 H 26.0536 12.3309 59.6814 0
M  V30 59 H 24.5453 11.6023 60.33 0
M  V30 60 H 26.3775 10.4936 58.1572 0
M  V30 61 H 24.676 11.046 57.9963 0
M  V30 END ATOM
M  V30 BEGIN BOND
M  V30 1 2 1 2
M  V30 2 1 2 3
M  V30 3 1 2 4
M  V30 4 1 3 5
M  V30 5 1 3 6
M  V30 6 2 4 7
M  V30 7 1 4 8
M  V30 8 1 5 9
M  V30 9 1 6 10
M  V30 10 1 7 11
M  V30 11 2 8 12
M  V30 12 2 11 13
M  V30 13 1 13 14
M  V30 14 1 14 15
M  V30 15 2 15 16
M  V30 16 1 15 17
M  V30 17 1 16 18
M  V30 18 2 17 19
M  V30 19 1 18 20
M  V30 20 2 18 21
M  V30 21 1 19 22
M  V30 22 1 20 23
M  V30 23 1 21 24
M  V30 24 2 22 25
M  V30 25 1 23 26
M  V30 26 1 26 27
M  V30 27 1 26 28
M  V30 28 1 27 29
M  V30 29 1 28 30
M  V30 30 1 29 31
M  V30 31 1 12 13
M  V30 32 1 19 21
M  V30 33 1 24 25
M  V30 34 1 30 31
M  V30 35 1 5 32
M  V30 36 1 5 33
M  V30 37 1 6 34
M  V30 38 1 6 35
M  V30 39 1 7 36
M  V30 40 1 8 37
M  V30 41 1 9 38
M  V30 42 1 9 39
M  V30 43 1 9 40
M  V30 44 1 10 41
M  V30 45 1 10 42
M  V30 46 1 10 43
M  V30 47 1 11 44
M  V30 48 1 12 45
M  V30 49 1 14 46
M  V30 50 1 23 47
M  V30 51 1 23 48
M  V30 52 1 24 49
M  V30 53 1 25 50
M  V30 54 1 26 51
M  V30 55 1 27 52
M  V30 56 1 27 53
M  V30 57 1 28 54
M  V30 58 1 28 55
M  V30 59 1 29 56
M  V30 60 1 29 57
M  V30 61 1 30 58
M  V30 62 1 30 59
M  V30 63 1 31 60
M  V30 64 1 31 61
M  V30 END BOND
M  V30 END CTAB
M  END
>  <Molecule Name>
XHEQSRJCJTWWAH-PWIKPTQSNA-N

>  <hs_clash>
15.0

>  <hs_total>
80.06130774715774

>  <Total Molweight>
422.531

>  <cLogP>
4.4285

>  <H-Acceptors>
8

>  <H-Donors>
2

>  <Polar Surface Area>
96.03

>  <Non-H Atoms>
31

>  <sp3-Atoms>
12

$$$$
ZKHQWZAMYRWXGA-SJUUOGGDNA-J
Actelion Java MolfileCreator 2.0

  0  0  0  0  0  0              0 V3000
M  V30 BEGIN CTAB
M  V30 COUNTS 43 45 0 0 0
M  V30 BEGIN ATOM
M  V30 1 P 26.556 13.8211 59.7742 0 CFG=2
M  V30 2 O 27.4292 12.592 59.8297 0
M  V30 3 O 25.0302 13.3571 60.0037 0
M  V30 4 O 26.5104 14.3796 58.2642 0
M  V30 5 O 26.8726 14.9816 60.6864 0 CHG=-1
M  V30 6 P 24.3666 13.3733 61.4643 0 CFG=2
M  V30 7 P 25.3801 13.9237 57.2057 0
M  V30 8 O 24.4015 14.7795 62.0172 0
M  V30 9 O 25.435 12.5309 62.3061 0
M  V30 10 O 23.074 12.5913 61.426 0 CHG=-1
M  V30 11 O 26.0109 14.2917 55.8892 0
M  V30 12 O 25.2472 12.4361 57.4177 0 CHG=-1
M  V30 13 O 24.1375 14.7162 57.5545 0 CHG=-1
M  V30 14 C 25.5621 11.1291 62.1376 0
M  V30 15 C 26.7628 10.7128 62.9697 0 CFG=1
M  V30 16 O 26.3699 9.7621 63.9604 0
M  V30 17 C 27.8822 10.0844 62.1503 0 CFG=1
M  V30 18 C 27.4199 8.806 64.1513 0 CFG=2
M  V30 19 O 28.8566 11.0696 61.7892 0
M  V30 20 C 28.4573 8.9973 63.0432 0 CFG=2
M  V30 21 N 26.883 7.4162 64.1221 0
M  V30 22 O 29.7424 9.3678 63.5718 0
M  V30 23 C 27.4454 6.4135 64.7825 0
M  V30 24 C 25.8009 6.9509 63.4587 0
M  V30 25 N 28.5273 6.3114 65.5872 0
M  V30 26 C 26.6269 5.2198 64.502 0
M  V30 27 N 25.6321 5.6165 63.683 0
M  V30 28 C 28.8573 5.1351 66.1375 0
M  V30 29 C 27.0648 3.9566 65.146 0
M  V30 30 N 28.1691 3.9966 65.929 0
M  V30 31 N 26.3916 2.8081 64.9461 0
M  V30 32 H 24.6553 10.6179 62.4936 0
M  V30 33 H 25.7286 10.8854 61.0781 0
M  V30 34 H 27.164 11.6098 63.4645 0
M  V30 35 H 27.4527 9.6221 61.2496 0
M  V30 36 H 27.9094 8.9799 65.1209 0
M  V30 37 H 28.7269 11.3266 60.8838 0
M  V30 38 H 28.5388 8.0646 62.4661 0
M  V30 39 H 30.3798 9.3911 62.868 0
M  V30 40 H 25.1572 7.5544 62.8356 0
M  V30 41 H 29.7223 5.0981 66.7831 0
M  V30 42 H 26.8376 2.0678 65.4491 0
M  V30 43 H 25.6114 2.9789 64.3442 0
M  V30 END ATOM
M  V30 BEGIN BOND
M  V30 1 2 1 2
M  V30 2 1 1 3
M  V30 3 1 1 4
M  V30 4 1 1 5
M  V30 5 1 3 6
M  V30 6 1 4 7
M  V30 7 2 6 8
M  V30 8 1 6 9
M  V30 9 1 6 10
M  V30 10 2 7 11
M  V30 11 1 7 12
M  V30 12 1 7 13
M  V30 13 1 9 14
M  V30 14 1 14 15
M  V30 15 1 15 16
M  V30 16 1 15 17
M  V30 17 1 16 18
M  V30 18 1 17 19
M  V30 19 1 17 20
M  V30 20 1 18 21
M  V30 21 1 20 22
M  V30 22 1 21 23
M  V30 23 1 21 24
M  V30 24 2 23 25
M  V30 25 1 23 26
M  V30 26 2 24 27
M  V30 27 1 25 28
M  V30 28 2 26 29
M  V30 29 2 28 30
M  V30 30 1 29 31
M  V30 31 1 18 20
M  V30 32 1 26 27
M  V30 33 1 29 30
M  V30 34 1 14 32
M  V30 35 1 14 33
M  V30 36 1 15 34
M  V30 37 1 17 35
M  V30 38 1 18 36
M  V30 39 1 19 37
M  V30 40 1 20 38
M  V30 41 1 22 39
M  V30 42 1 24 40
M  V30 43 1 28 41
M  V30 44 1 31 42
M  V30 45 1 31 43
M  V30 END BOND
M  V30 BEGIN COLLECTION
M  V30 MDLV30/STERAC1 ATOMS=(6 1 6 15 17 18 20)
M  V30 END COLLECTION
M  V30 END CTAB
M  END
>  <Molecule Name>
ZKHQWZAMYRWXGA-SJUUOGGDNA-J

>  <hs_clash>
12.0

>  <hs_total>
79.48742077556159

>  <Total Molweight>
503.149

>  <cLogP>
-15.06

>  <H-Acceptors>
18

>  <H-Donors>
3

>  <Polar Surface Area>
319.88

>  <Non-H Atoms>
31

>  <sp3-Atoms>
18

$$$$
CWQKPKYIMQTGJK-RVQYIEHVNA-N
Actelion Java MolfileCreator 2.0

  0  0  0  0  0  0              0 V3000
M  V30 BEGIN CTAB
M  V30 COUNTS 30 31 0 0 0
M  V30 BEGIN ATOM
M  V30 1 F 33.1113 10.3494 65.8561 0
M  V30 2 C 32.268 9.3103 65.7277 0
M  V30 3 C 32.0255 8.5069 66.8194 0
M  V30 4 C 31.6665 9.074 64.5051 0
M  V30 5 C 31.1612 7.437 66.6923 0
M  V30 6 C 30.7981 8.0071 64.3779 0
M  V30 7 C 30.5364 7.1799 65.4737 0
M  V30 8 N 29.6612 6.112 65.3496 0
M  V30 9 C 28.4893 6.1055 64.6899 0
M  V30 10 O 28.0572 7.0913 64.1132 0
M  V30 11 C 27.759 4.8154 64.6622 0
M  V30 12 N 28.1599 3.8091 65.3934 0
M  V30 13 C 26.6321 4.4571 63.9347 0
M  V30 14 N 27.3108 2.7941 65.128 0
M  V30 15 N 25.9498 5.2945 63.0671 0
M  V30 16 C 26.379 3.1568 64.2586 0
M  V30 17 C 24.8532 4.9771 62.3514 0
M  V30 18 O 24.3698 3.8589 62.3642 0
M  V30 19 C 24.2775 6.0781 61.526 0
M  V30 20 H 32.5056 8.7113 67.765 0
M  V30 21 H 31.8727 9.715 63.6608 0
M  V30 22 H 30.9688 6.7974 67.541 0
M  V30 23 H 30.3201 7.8119 63.4294 0
M  V30 24 H 29.9287 5.2587 65.7969 0
M  V30 25 H 27.3766 1.8836 65.5359 0
M  V30 26 H 26.3052 6.2234 62.9621 0
M  V30 27 H 25.5755 2.5423 63.8801 0
M  V30 28 H 23.4004 5.7053 60.9768 0
M  V30 29 H 23.9737 6.9078 62.1817 0
M  V30 30 H 25.0336 6.4341 60.811 0
M  V30 END ATOM
M  V30 BEGIN BOND
M  V30 1 1 1 2
M  V30 2 2 2 3
M  V30 3 1 2 4
M  V30 4 1 3 5
M  V30 5 2 4 6
M  V30 6 2 5 7
M  V30 7 1 7 8
M  V30 8 1 8 9
M  V30 9 2 9 10
M  V30 10 1 9 11
M  V30 11 2 11 12
M  V30 12 1 11 13
M  V30 13 1 12 14
M  V30 14 1 13 15
M  V30 15 2 13 16
M  V30 16 1 15 17
M  V30 17 2 17 18
M  V30 18 1 17 19
M  V30 19 1 6 7
M  V30 20 1 14 16
M  V30 21 1 3 20
M  V30 22 1 4 21
M  V30 23 1 5 22
M  V30 24 1 6 23
M  V30 25 1 8 24
M  V30 26 1 14 25
M  V30 27 1 15 26
M  V30 28 1 16 27
M  V30 29 1 19 28
M  V30 30 1 19 29
M  V30 31 1 19 30
M  V30 END BOND
M  V30 END CTAB
M  END
>  <Molecule Name>
CWQKPKYIMQTGJK-RVQYIEHVNA-N

>  <hs_clash>
0.0

>  <hs_total>
79.28901662935539

>  <Total Molweight>
262.243

>  <cLogP>
0.5592

>  <H-Acceptors>
6

>  <H-Donors>
3

>  <Polar Surface Area>
86.88

>  <Non-H Atoms>
19

>  <sp3-Atoms>
1

$$$$
FQEUBNKUJIJESK-QXYMKYIANA-N
Actelion Java MolfileCreator 2.0

  0  0  0  0  0  0              0 V3000
M  V30 BEGIN CTAB
M  V30 COUNTS 41 43 0 0 0
M  V30 BEGIN ATOM
M  V30 1 S 33.2286 10.6293 64.8452 0
M  V30 2 O 34.3013 10.0808 64.0128 0
M  V30 3 O 33.5596 11.2291 66.1524 0
M  V30 4 N 32.3492 11.7761 63.9169 0
M  V30 5 C 32.1737 9.2602 65.1212 0
M  V30 6 C 32.3487 8.4801 66.3162 0
M  V30 7 C 31.2058 8.9223 64.1403 0
M  V30 8 C 31.5477 7.3358 66.5172 0
M  V30 9 C 30.4086 7.779 64.3433 0
M  V30 10 C 30.5745 6.9699 65.5334 0
M  V30 11 N 29.8768 5.8459 65.6852 0
M  V30 12 C 28.7249 5.3345 65.155 0
M  V30 13 S 27.7128 6.2026 64.0327 0
M  V30 14 N 28.3055 4.1101 65.4224 0
M  V30 15 C 26.6926 4.7762 63.9203 0
M  V30 16 C 27.1509 3.7744 64.7215 0
M  V30 17 C 25.5396 4.814 63.0047 0
M  V30 18 N 26.5731 2.5142 64.8541 0
M  V30 19 O 24.939 3.768 62.7469 0
M  V30 20 N 25.2572 6.0079 62.4601 0
M  V30 21 C 24.2612 6.3541 61.504 0
M  V30 22 C 22.849 6.092 61.7379 0
M  V30 23 C 24.6717 6.9757 60.2792 0
M  V30 24 F 22.4163 5.5046 62.8862 0
M  V30 25 C 21.8834 6.4579 60.7388 0
M  V30 26 F 25.9956 7.221 60.0525 0
M  V30 27 C 23.7032 7.3401 59.2923 0
M  V30 28 C 22.3109 7.0797 59.5217 0
M  V30 29 H 32.9817 12.297 63.3435 0
M  V30 30 H 31.6887 11.2996 63.3366 0
M  V30 31 H 33.0852 8.7671 67.0522 0
M  V30 32 H 31.0823 9.5298 63.256 0
M  V30 33 H 31.6682 6.739 67.4093 0
M  V30 34 H 29.6685 7.5037 63.6067 0
M  V30 35 H 30.2973 5.2258 66.3475 0
M  V30 36 H 27.112 1.9658 65.4934 0
M  V30 37 H 25.7573 2.4588 64.2785 0
M  V30 38 H 25.8309 6.7655 62.7718 0
M  V30 39 H 20.8341 6.264 60.9058 0
M  V30 40 H 24.0198 7.8116 58.3739 0
M  V30 41 H 21.5822 7.3537 58.7731 0
M  V30 END ATOM
M  V30 BEGIN BOND
M  V30 1 2 1 2
M  V30 2 2 1 3
M  V30 3 1 1 4
M  V30 4 1 1 5
M  V30 5 2 5 6
M  V30 6 1 5 7
M  V30 7 1 6 8
M  V30 8 2 7 9
M  V30 9 2 8 10
M  V30 10 1 10 11
M  V30 11 1 11 12
M  V30 12 1 12 13
M  V30 13 2 12 14
M  V30 14 1 13 15
M  V30 15 1 14 16
M  V30 16 1 15 17
M  V30 17 1 16 18
M  V30 18 2 17 19
M  V30 19 1 17 20
M  V30 20 1 20 21
M  V30 21 2 21 22
M  V30 22 1 21 23
M  V30 23 1 22 24
M  V30 24 1 22 25
M  V30 25 1 23 26
M  V30 26 2 23 27
M  V30 27 2 25 28
M  V30 28 1 9 10
M  V30 29 2 15 16
M  V30 30 1 27 28
M  V30 31 1 4 29
M  V30 32 1 4 30
M  V30 33 1 6 31
M  V30 34 1 7 32
M  V30 35 1 8 33
M  V30 36 1 9 34
M  V30 37 1 11 35
M  V30 38 1 18 36
M  V30 39 1 18 37
M  V30 40 1 20 38
M  V30 41 1 25 39
M  V30 42 1 27 40
M  V30 43 1 28 41
M  V30 END BOND
M  V30 END CTAB
M  END
>  <Molecule Name>
FQEUBNKUJIJESK-QXYMKYIANA-N

>  <hs_clash>
14.0

>  <hs_total>
77.2196810966181

>  <Total Molweight>
425.439

>  <cLogP>
2.6847

>  <H-Acceptors>
8

>  <H-Donors>
4

>  <Polar Surface Area>
176.82

>  <Non-H Atoms>
28

>  <sp3-Atoms>
1

$$$$
ZKHQWZAMYRWXGA-SJUUOGGDNA-J
Actelion Java MolfileCreator 2.0

  0  0  0  0  0  0              0 V3000
M  V30 BEGIN CTAB
M  V30 COUNTS 43 45 0 0 0
M  V30 BEGIN ATOM
M  V30 1 P 26.21 13.1871 59.7411 0 CFG=2
M  V30 2 O 27.3447 13.6585 60.6191 0
M  V30 3 O 24.8401 13.9252 60.1776 0
M  V30 4 O 26.5272 13.8311 58.3056 0
M  V30 5 O 25.9472 11.7031 59.5888 0 CHG=-1
M  V30 6 P 24.113 13.6913 61.5998 0 CFG=1
M  V30 7 P 25.5742 13.6217 57.0363 0
M  V30 8 O 23.7727 15.0426 62.1826 0
M  V30 9 O 25.2651 13.0649 62.5474 0
M  V30 10 O 23.0155 12.6704 61.4016 0 CHG=-1
M  V30 11 O 26.4963 13.9604 55.8908 0
M  V30 12 O 25.1517 12.1703 57.1003 0 CHG=-1
M  V30 13 O 24.4447 14.6 57.2546 0 CHG=-1
M  V30 14 C 25.2709 11.6851 62.9182 0
M  V30 15 C 26.4392 11.3775 63.8538 0 CFG=2
M  V30 16 O 26.207 10.123 64.5011 0
M  V30 17 C 27.7832 11.2548 63.1447 0 CFG=2
M  V30 18 C 27.3184 9.2378 64.2903 0 CFG=1
M  V30 19 O 28.8063 11.9109 63.9029 0
M  V30 20 C 28.0794 9.7699 63.0798 0 CFG=1
M  V30 21 N 26.8256 7.8389 64.1564 0
M  V30 22 O 29.4915 9.5211 63.1506 0
M  V30 23 C 27.3411 6.8142 64.8252 0
M  V30 24 C 25.793 7.3909 63.4098 0
M  V30 25 N 28.363 6.6807 65.6987 0
M  V30 26 C 26.5611 5.623 64.4451 0
M  V30 27 N 25.6266 6.0484 63.573 0
M  V30 28 C 28.6664 5.4802 66.2266 0
M  V30 29 C 26.9655 4.3289 65.0699 0
M  V30 30 N 28.0113 4.3455 65.9294 0
M  V30 31 N 26.3269 3.1756 64.7875 0
M  V30 32 H 24.327 11.4457 63.4301 0
M  V30 33 H 25.3631 11.0689 62.0118 0
M  V30 34 H 26.5089 12.1792 64.6039 0
M  V30 35 H 27.7106 11.6701 62.1288 0
M  V30 36 H 27.9886 9.2881 65.1611 0
M  V30 37 H 29.1172 12.6707 63.4248 0
M  V30 38 H 27.6516 9.3459 62.1596 0
M  V30 39 H 29.9313 9.9887 62.4504 0
M  V30 40 H 25.1827 8.0122 62.771 0
M  V30 41 H 29.4841 5.4262 66.9301 0
M  V30 42 H 26.7507 2.4263 65.2961 0
M  V30 43 H 25.5865 3.3541 64.1394 0
M  V30 END ATOM
M  V30 BEGIN BOND
M  V30 1 2 1 2
M  V30 2 1 1 3
M  V30 3 1 1 4
M  V30 4 1 1 5
M  V30 5 1 3 6
M  V30 6 1 4 7
M  V30 7 2 6 8
M  V30 8 1 6 9
M  V30 9 1 6 10
M  V30 10 2 7 11
M  V30 11 1 7 12
M  V30 12 1 7 13
M  V30 13 1 9 14
M  V30 14 1 14 15
M  V30 15 1 15 16
M  V30 16 1 15 17
M  V30 17 1 16 18
M  V30 18 1 17 19
M  V30 19 1 17 20
M  V30 20 1 18 21
M  V30 21 1 20 22
M  V30 22 1 21 23
M  V30 23 1 21 24
M  V30 24 2 23 25
M  V30 25 1 23 26
M  V30 26 2 24 27
M  V30 27 1 25 28
M  V30 28 2 26 29
M  V30 29 2 28 30
M  V30 30 1 29 31
M  V30 31 1 18 20
M  V30 32 1 26 27
M  V30 33 1 29 30
M  V30 34 1 14 32
M  V30 35 1 14 33
M  V30 36 1 15 34
M  V30 37 1 17 35
M  V30 38 1 18 36
M  V30 39 1 19 37
M  V30 40 1 20 38
M  V30 41 1 22 39
M  V30 42 1 24 40
M  V30 43 1 28 41
M  V30 44 1 31 42
M  V30 45 1 31 43
M  V30 END BOND
M  V30 BEGIN COLLECTION
M  V30 MDLV30/STERAC1 ATOMS=(6 1 6 15 17 18 20)
M  V30 END COLLECTION
M  V30 END CTAB
M  END
>  <Molecule Name>
ZKHQWZAMYRWXGA-SJUUOGGDNA-J

>  <hs_clash>
37.0

>  <hs_total>
76.89392481989317

>  <Total Molweight>
503.149

>  <cLogP>
-15.06

>  <H-Acceptors>
18

>  <H-Donors>
3

>  <Polar Surface Area>
319.88

>  <Non-H Atoms>
31

>  <sp3-Atoms>
18

$$$$
HUXYBQXJVXOMKX-KBWLSROENA-O
Actelion Java MolfileCreator 2.0

  0  0  0  0  0  0              0 V3000
M  V30 BEGIN CTAB
M  V30 COUNTS 58 60 0 0 0
M  V30 BEGIN ATOM
M  V30 1 O 22.5759 5.5664 62.4894 0
M  V30 2 C 23.6203 6.1906 62.6886 0
M  V30 3 N 24.6362 5.6918 63.5388 0
M  V30 4 C 23.8601 7.5732 61.9985 0 CFG=1
M  V30 5 C 24.5188 4.3678 64.2651 0
M  V30 6 C 25.8919 6.3924 63.7837 0
M  V30 7 C 22.552 8.2708 61.5403 0
M  V30 8 C 24.7394 7.3939 60.7034 0
M  V30 9 C 25.8514 4.3719 64.9555 0
M  V30 10 C 24.4056 3.1577 63.3769 0
M  V30 11 C 23.3371 4.3957 65.2372 0
M  V30 12 C 26.5749 5.4738 64.6753 0
M  V30 13 C 22.812 9.6295 60.8786 0
M  V30 14 C 25.0518 8.7324 59.9611 0
M  V30 15 N 26.5149 3.5278 65.7885 0
M  V30 16 C 27.8074 5.2433 65.4131 0
M  V30 17 N 23.6644 9.5015 59.6153 0 CHG=1 CFG=1
M  V30 18 N 27.7584 4.1146 66.0563 0
M  V30 19 N 28.8864 6.0931 65.3776 0
M  V30 20 C 23.9524 10.7242 58.9532 0
M  V30 21 C 28.9472 7.4411 65.4884 0
M  V30 22 O 28.0035 8.1608 65.676 0
M  V30 23 C 30.3373 7.9975 65.2119 0
M  V30 24 C 30.5879 9.4973 65.2178 0
M  V30 25 C 31.9805 9.7787 64.7604 0
M  V30 26 C 30.5361 9.9701 66.6499 0
M  V30 27 H 24.3926 8.2336 62.6988 0
M  V30 28 H 26.4563 6.5403 62.8516 0
M  V30 29 H 25.7197 7.3658 64.2668 0
M  V30 30 H 22.0387 7.6192 60.8181 0
M  V30 31 H 21.9072 8.424 62.4186 0
M  V30 32 H 25.6923 6.9281 60.9939 0
M  V30 33 H 24.2028 6.7299 60.0099 0
M  V30 34 H 24.3256 2.2531 63.9977 0
M  V30 35 H 23.5095 3.2491 62.7455 0
M  V30 36 H 25.2984 3.0868 62.7388 0
M  V30 37 H 23.2655 3.4284 65.7562 0
M  V30 38 H 23.4884 5.1972 65.9756 0
M  V30 39 H 22.4075 4.5821 64.6794 0
M  V30 40 H 23.3358 10.2787 61.5956 0
M  V30 41 H 21.8467 10.0838 60.6103 0
M  V30 42 H 25.6733 9.3717 60.6054 0
M  V30 43 H 25.5923 8.5158 59.0283 0
M  V30 44 H 26.1795 2.6549 66.1424 0
M  V30 45 H 23.1673 8.9072 58.9831 0
M  V30 46 H 29.7697 5.6431 65.2494 0
M  V30 47 H 23.0122 11.2453 58.7189 0
M  V30 48 H 24.5695 11.3584 59.6065 0
M  V30 49 H 24.4984 10.5167 58.0214 0
M  V30 50 H 31.0057 7.5644 65.9706 0
M  V30 51 H 30.6286 7.6341 64.2158 0
M  V30 52 H 29.847 10.024 64.5982 0
M  V30 53 H 32.1568 10.8645 64.7665 0
M  V30 54 H 32.6949 9.2877 65.4377 0
M  V30 55 H 32.1165 9.3909 63.7403 0
M  V30 56 H 30.7145 11.055 66.6853 0
M  V30 57 H 29.5457 9.7478 67.0738 0
M  V30 58 H 31.3099 9.4521 67.2352 0
M  V30 END ATOM
M  V30 BEGIN BOND
M  V30 1 2 1 2
M  V30 2 1 2 3
M  V30 3 1 2 4
M  V30 4 1 3 5
M  V30 5 1 3 6
M  V30 6 1 4 7
M  V30 7 1 4 8
M  V30 8 1 5 9
M  V30 9 1 5 10
M  V30 10 1 5 11
M  V30 11 1 6 12
M  V30 12 1 7 13
M  V30 13 1 8 14
M  V30 14 1 9 15
M  V30 15 1 12 16
M  V30 16 1 13 17
M  V30 17 1 15 18
M  V30 18 1 16 19
M  V30 19 1 17 20
M  V30 20 1 19 21
M  V30 21 2 21 22
M  V30 22 1 21 23
M  V30 23 1 23 24
M  V30 24 1 24 25
M  V30 25 1 24 26
M  V30 26 2 9 12
M  V30 27 1 14 17
M  V30 28 2 16 18
M  V30 29 1 4 27
M  V30 30 1 6 28
M  V30 31 1 6 29
M  V30 32 1 7 30
M  V30 33 1 7 31
M  V30 34 1 8 32
M  V30 35 1 8 33
M  V30 36 1 10 34
M  V30 37 1 10 35
M  V30 38 1 10 36
M  V30 39 1 11 37
M  V30 40 1 11 38
M  V30 41 1 11 39
M  V30 42 1 13 40
M  V30 43 1 13 41
M  V30 44 1 14 42
M  V30 45 1 14 43
M  V30 46 1 15 44
M  V30 47 1 17 45
M  V30 48 1 19 46
M  V30 49 1 20 47
M  V30 50 1 20 48
M  V30 51 1 20 49
M  V30 52 1 23 50
M  V30 53 1 23 51
M  V30 54 1 24 52
M  V30 55 1 25 53
M  V30 56 1 25 54
M  V30 57 1 25 55
M  V30 58 1 26 56
M  V30 59 1 26 57
M  V30 60 1 26 58
M  V30 END BOND
M  V30 BEGIN COLLECTION
M  V30 MDLV30/STEABS ATOMS=(2 4 17)
M  V30 END COLLECTION
M  V30 END CTAB
M  END
>  <Molecule Name>
HUXYBQXJVXOMKX-KBWLSROENA-O

>  <hs_clash>
0.0

>  <hs_total>
76.71084729763245

>  <Total Molweight>
362.496

>  <cLogP>
-0.754

>  <H-Acceptors>
7

>  <H-Donors>
3

>  <Polar Surface Area>
82.53

>  <Non-H Atoms>
26

>  <sp3-Atoms>
15

$$$$
HOCBJBNQIQQQGT-IBTZCTHDNA-N
Actelion Java MolfileCreator 2.0

  0  0  0  0  0  0              0 V3000
M  V30 BEGIN CTAB
M  V30 COUNTS 61 64 0 0 0
M  V30 BEGIN ATOM
M  V30 1 O 25.0779 11.2806 62.7338 0
M  V30 2 C 24.3721 10.2671 61.9965 0
M  V30 3 C 25.1574 8.9556 61.9936 0 CFG=1
M  V30 4 N 26.2793 9.0491 62.9215 0
M  V30 5 C 25.6383 8.649 60.5742 0
M  V30 6 C 26.7061 7.9468 63.5719 0
M  V30 7 C 25.2013 7.2837 60.0944 0
M  V30 8 N 27.9307 7.9206 64.1653 0
M  V30 9 N 25.8774 6.8893 63.5953 0
M  V30 10 C 28.4081 6.8309 64.8234 0
M  V30 11 C 26.2267 5.7451 64.2168 0
M  V30 12 N 29.6283 6.8413 65.4125 0
M  V30 13 C 27.5272 5.6252 64.8874 0
M  V30 14 N 25.5946 4.5935 64.3708 0
M  V30 15 C 30.6914 7.7533 65.0368 0
M  V30 16 N 27.5541 4.3753 65.4015 0
M  V30 17 C 26.3814 3.7582 65.0819 0
M  V30 18 C 24.2438 4.414 63.7821 0
M  V30 19 C 30.6291 8.944 65.956 0
M  V30 20 C 24.1991 3.1635 62.9251 0
M  V30 21 C 23.1933 4.4876 64.8702 0
M  V30 22 C 30.9031 8.7796 67.3092 0
M  V30 23 C 30.2876 10.2016 65.4501 0
M  V30 24 C 30.8385 9.8804 68.1611 0
M  V30 25 C 30.2207 11.3012 66.3048 0
M  V30 26 C 30.5075 11.1414 67.661 0
M  V30 27 C 30.4102 12.3031 68.5856 0
M  V30 28 N 29.909 13.4711 68.1279 0
M  V30 29 C 30.7769 12.1758 69.9285 0
M  V30 30 C 29.7773 14.5497 68.9283 0
M  V30 31 C 30.648 13.275 70.7798 0
M  V30 32 C 30.1429 14.4738 70.2755 0
M  V30 33 H 24.9475 11.1445 63.6651 0
M  V30 34 H 24.2317 10.6066 60.9599 0
M  V30 35 H 23.3903 10.0989 62.4635 0
M  V30 36 H 24.4848 8.1469 62.3151 0
M  V30 37 H 26.8793 9.8476 62.8769 0
M  V30 38 H 25.2304 9.4094 59.8922 0
M  V30 39 H 26.7371 8.6932 60.5578 0
M  V30 40 H 25.5733 7.1172 59.0728 0
M  V30 41 H 25.6094 6.512 60.7636 0
M  V30 42 H 24.1027 7.2282 60.098 0
M  V30 43 H 29.8846 6.036 65.947 0
M  V30 44 H 31.6656 7.2533 65.139 0
M  V30 45 H 30.5533 8.0785 63.9951 0
M  V30 46 H 26.1195 2.7476 65.3582 0
M  V30 47 H 24.0664 5.2665 63.1102 0
M  V30 48 H 23.192 3.047 62.4979 0
M  V30 49 H 24.9345 3.2502 62.1118 0
M  V30 50 H 24.4382 2.2863 63.544 0
M  V30 51 H 23.3105 5.4267 65.4312 0
M  V30 52 H 22.192 4.4549 64.4158 0
M  V30 53 H 23.3135 3.6347 65.5542 0
M  V30 54 H 31.1636 7.8063 67.697 0
M  V30 55 H 30.0755 10.3216 64.398 0
M  V30 56 H 31.0453 9.7577 69.214 0
M  V30 57 H 29.9481 12.2725 65.9191 0
M  V30 58 H 31.1561 11.2368 70.3036 0
M  V30 59 H 29.3883 15.4742 68.5271 0
M  V30 60 H 30.936 13.1982 71.8181 0
M  V30 61 H 30.0356 15.3345 70.9193 0
M  V30 END ATOM
M  V30 BEGIN BOND
M  V30 1 1 1 2
M  V30 2 1 2 3
M  V30 3 1 3 4
M  V30 4 1 3 5
M  V30 5 1 4 6
M  V30 6 1 5 7
M  V30 7 2 6 8
M  V30 8 1 6 9
M  V30 9 1 8 10
M  V30 10 2 9 11
M  V30 11 1 10 12
M  V30 12 2 10 13
M  V30 13 1 11 14
M  V30 14 1 12 15
M  V30 15 1 13 16
M  V30 16 1 14 17
M  V30 17 1 14 18
M  V30 18 1 15 19
M  V30 19 1 18 20
M  V30 20 1 18 21
M  V30 21 2 19 22
M  V30 22 1 19 23
M  V30 23 1 22 24
M  V30 24 2 23 25
M  V30 25 2 24 26
M  V30 26 1 26 27
M  V30 27 2 27 28
M  V30 28 1 27 29
M  V30 29 1 28 30
M  V30 30 2 29 31
M  V30 31 2 30 32
M  V30 32 1 11 13
M  V30 33 2 16 17
M  V30 34 1 25 26
M  V30 35 1 31 32
M  V30 36 1 1 33
M  V30 37 1 2 34
M  V30 38 1 2 35
M  V30 39 1 3 36
M  V30 40 1 4 37
M  V30 41 1 5 38
M  V30 42 1 5 39
M  V30 43 1 7 40
M  V30 44 1 7 41
M  V30 45 1 7 42
M  V30 46 1 12 43
M  V30 47 1 15 44
M  V30 48 1 15 45
M  V30 49 1 17 46
M  V30 50 1 18 47
M  V30 51 1 20 48
M  V30 52 1 20 49
M  V30 53 1 20 50
M  V30 54 1 21 51
M  V30 55 1 21 52
M  V30 56 1 21 53
M  V30 57 1 22 54
M  V30 58 1 23 55
M  V30 59 1 24 56
M  V30 60 1 25 57
M  V30 61 1 29 58
M  V30 62 1 30 59
M  V30 63 1 31 60
M  V30 64 1 32 61
M  V30 END BOND
M  V30 BEGIN COLLECTION
M  V30 MDLV30/STERAC1 ATOMS=(1 3)
M  V30 END COLLECTION
M  V30 END CTAB
M  END
>  <Molecule Name>
HOCBJBNQIQQQGT-IBTZCTHDNA-N

>  <hs_clash>
0.0

>  <hs_total>
76.18680701327689

>  <Total Molweight>
431.542

>  <cLogP>
3.3307

>  <H-Acceptors>
8

>  <H-Donors>
3

>  <Polar Surface Area>
100.78

>  <Non-H Atoms>
32

>  <sp3-Atoms>
9

$$$$
AARNVVCHOMHOPP-NLVQTBMLNA-N
Actelion Java MolfileCreator 2.0

  0  0  0  0  0  0              0 V3000
M  V30 BEGIN CTAB
M  V30 COUNTS 24 26 0 0 0
M  V30 BEGIN ATOM
M  V30 1 S 25.0312 11.1002 62.8214 0
M  V30 2 C 26.4379 10.087 62.7953 0
M  V30 3 C 25.8673 12.4937 62.3944 0
M  V30 4 C 26.3647 8.7795 63.2035 0
M  V30 5 C 27.4938 10.8571 62.5363 0
M  V30 6 C 27.1639 12.1786 62.3006 0
M  V30 7 O 25.2637 8.265 63.3375 0
M  V30 8 N 27.5466 8.2023 63.599 0
M  V30 9 C 27.7698 6.972 64.2383 0
M  V30 10 N 28.787 7.0642 65.1198 0
M  V30 11 C 27.1038 5.8015 64.0257 0
M  V30 12 C 29.1386 5.9646 65.862 0
M  V30 13 N 26.1162 5.4172 63.1946 0
M  V30 14 C 27.5043 4.6584 64.7323 0
M  V30 15 N 28.5095 4.7348 65.5867 0
M  V30 16 C 25.9227 4.1041 63.3391 0
M  V30 17 N 26.8138 3.6092 64.3026 0
M  V30 18 H 25.4352 13.4694 62.2257 0
M  V30 19 H 28.5076 10.4856 62.5131 0
M  V30 20 H 27.9125 12.9169 62.0539 0
M  V30 21 H 28.3688 8.7367 63.4031 0
M  V30 22 H 29.8826 6.041 66.6412 0
M  V30 23 H 25.195 3.5161 62.7996 0
M  V30 24 H 26.9094 2.6607 64.6042 0
M  V30 END ATOM
M  V30 BEGIN BOND
M  V30 1 1 1 2
M  V30 2 1 1 3
M  V30 3 1 2 4
M  V30 4 2 2 5
M  V30 5 2 3 6
M  V30 6 2 4 7
M  V30 7 1 4 8
M  V30 8 1 8 9
M  V30 9 2 9 10
M  V30 10 1 9 11
M  V30 11 1 10 12
M  V30 12 1 11 13
M  V30 13 2 11 14
M  V30 14 2 12 15
M  V30 15 2 13 16
M  V30 16 1 14 17
M  V30 17 1 5 6
M  V30 18 1 14 15
M  V30 19 1 16 17
M  V30 20 1 3 18
M  V30 21 1 5 19
M  V30 22 1 6 20
M  V30 23 1 8 21
M  V30 24 1 12 22
M  V30 25 1 16 23
M  V30 26 1 17 24
M  V30 END BOND
M  V30 END CTAB
M  END
>  <Molecule Name>
AARNVVCHOMHOPP-NLVQTBMLNA-N

>  <hs_clash>
0.0

>  <hs_total>
76.11451976242012

>  <Total Molweight>
245.266

>  <cLogP>
1.3444

>  <H-Acceptors>
6

>  <H-Donors>
2

>  <Polar Surface Area>
111.8

>  <Non-H Atoms>
17

>  <sp3-Atoms>
0

$$$$
XOLMRFUGOINFDQ-IRXZHZTGNA-O
Actelion Java MolfileCreator 2.0

  0  0  0  0  0  0              0 V3000
M  V30 BEGIN CTAB
M  V30 COUNTS 38 41 0 0 0
M  V30 BEGIN ATOM
M  V30 1 S 22.8953 6.1016 61.7836 0
M  V30 2 C 23.8742 7.2814 60.9288 0
M  V30 3 C 24.2894 5.56 62.6777 0
M  V30 4 N 23.4716 8.1732 59.9994 0 CHG=1
M  V30 5 N 25.1784 7.3027 61.2486 0
M  V30 6 C 25.4136 6.3914 62.1926 0
M  V30 7 C 24.3398 4.4892 63.7208 0
M  V30 8 C 24.2385 9.4056 59.7699 0
M  V30 9 O 26.6036 6.2753 62.6219 0
M  V30 10 C 25.6769 4.2245 64.3314 0
M  V30 11 C 25.2702 9.7506 60.8373 0
M  V30 12 C 26.4888 5.3179 64.6609 0
M  V30 13 C 26.1383 2.9269 64.5729 0
M  V30 14 S 24.7145 10.4015 62.3423 0
M  V30 15 C 26.6603 9.6647 60.908 0
M  V30 16 C 27.7519 5.149 65.2037 0
M  V30 17 C 27.4052 2.7007 65.1335 0
M  V30 18 C 26.2754 10.559 63.0748 0
M  V30 19 C 27.1939 10.1048 62.1317 0
M  V30 20 C 28.2357 3.7719 65.4608 0
M  V30 21 C 28.5684 6.2289 65.5225 0
M  V30 22 N 29.4661 3.6045 66.0035 0
M  V30 23 C 29.8239 5.9754 66.0762 0
M  V30 24 C 30.2432 4.6632 66.3029 0
M  V30 25 H 22.6463 7.9942 59.4635 0
M  V30 26 H 25.8644 7.9067 60.8428 0
M  V30 27 H 23.4588 3.9386 64.0158 0
M  V30 28 H 24.766 9.3017 58.8106 0
M  V30 29 H 23.525 10.241 59.7075 0
M  V30 30 H 26.1203 6.3183 64.4872 0
M  V30 31 H 25.5096 2.0848 64.324 0
M  V30 32 H 27.2704 9.2947 60.0974 0
M  V30 33 H 27.7392 1.6895 65.3128 0
M  V30 34 H 26.4932 10.9341 64.0641 0
M  V30 35 H 28.2554 10.0913 62.3293 0
M  V30 36 H 28.2377 7.2419 65.3458 0
M  V30 37 H 30.4749 6.799 66.3307 0
M  V30 38 H 31.2198 4.4917 66.7312 0
M  V30 END ATOM
M  V30 BEGIN BOND
M  V30 1 1 1 2
M  V30 2 1 1 3
M  V30 3 2 2 4
M  V30 4 1 2 5
M  V30 5 1 3 6
M  V30 6 2 3 7
M  V30 7 1 4 8
M  V30 8 2 6 9
M  V30 9 1 7 10
M  V30 10 1 8 11
M  V30 11 2 10 12
M  V30 12 1 10 13
M  V30 13 1 11 14
M  V30 14 2 11 15
M  V30 15 1 12 16
M  V30 16 2 13 17
M  V30 17 1 14 18
M  V30 18 1 15 19
M  V30 19 1 16 20
M  V30 20 2 16 21
M  V30 21 2 20 22
M  V30 22 1 21 23
M  V30 23 1 22 24
M  V30 24 1 5 6
M  V30 25 1 17 20
M  V30 26 2 18 19
M  V30 27 2 23 24
M  V30 28 1 4 25
M  V30 29 1 5 26
M  V30 30 1 7 27
M  V30 31 1 8 28
M  V30 32 1 8 29
M  V30 33 1 12 30
M  V30 34 1 13 31
M  V30 35 1 15 32
M  V30 36 1 17 33
M  V30 37 1 18 34
M  V30 38 1 19 35
M  V30 39 1 21 36
M  V30 40 1 23 37
M  V30 41 1 24 38
M  V30 END BOND
M  V30 END CTAB
M  END
>  <Molecule Name>
XOLMRFUGOINFDQ-IRXZHZTGNA-O

>  <hs_clash>
2.0

>  <hs_total>
75.52840589946554

>  <Total Molweight>
352.461

>  <cLogP>
2.9926

>  <H-Acceptors>
4

>  <H-Donors>
2

>  <Polar Surface Area>
109.5

>  <Non-H Atoms>
24

>  <sp3-Atoms>
2

$$$$
YAHBQFQHOVVECT-JXRYJDBSNA-N
Actelion Java MolfileCreator 2.0

  0  0  0  0  0  0              0 V3000
M  V30 BEGIN CTAB
M  V30 COUNTS 40 41 0 0 0
M  V30 BEGIN ATOM
M  V30 1 O 29.3576 7.8488 65.1072 0
M  V30 2 C 29.5161 6.7142 65.5896 0
M  V30 3 N 30.5359 6.4801 66.4407 0
M  V30 4 C 28.5877 5.6166 65.2357 0
M  V30 5 N 31.455 7.5166 66.8136 0
M  V30 6 N 28.651 4.3463 65.6656 0
M  V30 7 C 27.411 5.7038 64.3443 0
M  V30 8 N 27.583 3.5978 65.0924 0
M  V30 9 C 26.8448 4.4472 64.3017 0
M  V30 10 C 26.8315 6.9071 63.5683 0
M  V30 11 C 25.5718 4.1265 63.4694 0
M  V30 12 C 26.004 6.5197 62.25 0 CFG=2
M  V30 13 C 24.9429 5.3786 62.6917 0
M  V30 14 C 25.3974 7.8595 61.4802 0
M  V30 15 C 25.978 7.9405 59.9714 0
M  V30 16 C 25.7692 9.1706 62.2748 0
M  V30 17 C 23.8387 7.8277 61.3761 0
M  V30 18 C 25.58 6.6798 59.3027 0
M  V30 19 H 30.6541 5.5627 66.8207 0
M  V30 20 H 32.1346 7.1481 67.4479 0
M  V30 21 H 31.9152 7.8636 65.9967 0
M  V30 22 H 27.4014 2.6254 65.2398 0
M  V30 23 H 26.1609 7.4595 64.2434 0
M  V30 24 H 27.6673 7.5568 63.2697 0
M  V30 25 H 25.8332 3.3589 62.7267 0
M  V30 26 H 24.8068 3.7298 64.1534 0
M  V30 27 H 26.7103 6.0488 61.5505 0
M  V30 28 H 24.45 5.0022 61.7833 0
M  V30 29 H 24.194 5.8461 63.3482 0
M  V30 30 H 25.5466 8.8041 59.4436 0
M  V30 31 H 27.0739 8.0325 59.9901 0
M  V30 32 H 25.3594 10.0466 61.7507 0
M  V30 33 H 25.344 9.1181 63.2882 0
M  V30 34 H 26.8634 9.2614 62.3406 0
M  V30 35 H 23.4866 8.7333 60.8602 0
M  V30 36 H 23.5273 6.9385 60.809 0
M  V30 37 H 23.4045 7.7891 62.3861 0
M  V30 38 H 25.9509 6.6808 58.2673 0
M  V30 39 H 26.0105 5.8255 59.8457 0
M  V30 40 H 24.4832 6.597 59.2992 0
M  V30 END ATOM
M  V30 BEGIN BOND
M  V30 1 2 1 2
M  V30 2 1 2 3
M  V30 3 1 2 4
M  V30 4 1 3 5
M  V30 5 2 4 6
M  V30 6 1 4 7
M  V30 7 1 6 8
M  V30 8 2 7 9
M  V30 9 1 7 10
M  V30 10 1 9 11
M  V30 11 1 10 12
M  V30 12 1 11 13
M  V30 13 1 12 14
M  V30 14 1 14 15
M  V30 15 1 14 16
M  V30 16 1 14 17
M  V30 17 1 15 18
M  V30 18 1 8 9
M  V30 19 1 12 13
M  V30 20 1 3 19
M  V30 21 1 5 20
M  V30 22 1 5 21
M  V30 23 1 8 22
M  V30 24 1 10 23
M  V30 25 1 10 24
M  V30 26 1 11 25
M  V30 27 1 11 26
M  V30 28 1 12 27
M  V30 29 1 13 28
M  V30 30 1 13 29
M  V30 31 1 15 30
M  V30 32 1 15 31
M  V30 33 1 16 32
M  V30 34 1 16 33
M  V30 35 1 16 34
M  V30 36 1 17 35
M  V30 37 1 17 36
M  V30 38 1 17 37
M  V30 39 1 18 38
M  V30 40 1 18 39
M  V30 41 1 18 40
M  V30 END BOND
M  V30 BEGIN COLLECTION
M  V30 MDLV30/STERAC1 ATOMS=(1 12)
M  V30 END COLLECTION
M  V30 END CTAB
M  END
>  <Molecule Name>
YAHBQFQHOVVECT-JXRYJDBSNA-N

>  <hs_clash>
0.0

>  <hs_total>
75.01286592254782

>  <Total Molweight>
250.345

>  <cLogP>
1.1034

>  <H-Acceptors>
5

>  <H-Donors>
3

>  <Polar Surface Area>
83.8

>  <Non-H Atoms>
18

>  <sp3-Atoms>
10

$$$$
OVPNQJVDAFNBDN-XWPUVDKMNA-O
Actelion Java MolfileCreator 2.0

  0  0  0  0  0  0              0 V3000
M  V30 BEGIN CTAB
M  V30 COUNTS 43 45 0 0 0
M  V30 BEGIN ATOM
M  V30 1 Cl 22.2097 5.7459 62.41 0
M  V30 2 C 23.2576 6.614 61.3546 0
M  V30 3 C 24.5811 6.2525 61.2771 0
M  V30 4 C 22.7483 7.6661 60.5912 0
M  V30 5 C 25.411 6.9743 60.4365 0
M  V30 6 C 25.1169 5.1482 62.1304 0
M  V30 7 C 23.5862 8.3625 59.7389 0
M  V30 8 Cl 27.0727 6.5354 60.3042 0
M  V30 9 C 24.9256 8.0256 59.6691 0
M  V30 10 O 24.7642 3.9796 61.9708 0
M  V30 11 N 25.9537 5.5269 63.1166 0
M  V30 12 C 26.6119 4.6596 63.9868 0
M  V30 13 C 27.6486 5.0541 64.812 0
M  V30 14 C 26.4403 3.3119 64.2182 0
M  V30 15 N 28.1168 3.9972 65.5448 0
M  V30 16 C 28.1849 6.4179 64.8945 0
M  V30 17 N 27.3653 2.9384 65.148 0
M  V30 18 O 27.5789 7.364 64.362 0
M  V30 19 N 29.354 6.5656 65.5715 0
M  V30 20 C 30.074 7.8351 65.6304 0
M  V30 21 C 30.7469 8.0332 66.9948 0
M  V30 22 C 31.1128 7.9365 64.5115 0
M  V30 23 C 31.4703 9.3777 67.037 0
M  V30 24 C 31.8378 9.2834 64.5865 0
M  V30 25 N 32.462 9.4734 65.926 0 CHG=1
M  V30 26 H 21.7048 7.9356 60.6657 0
M  V30 27 H 23.1963 9.1654 59.131 0
M  V30 28 H 25.5908 8.5768 59.021 0
M  V30 29 H 26.1151 6.5069 63.2332 0
M  V30 30 H 25.7087 2.6702 63.7499 0
M  V30 31 H 27.4755 2.0064 65.4927 0
M  V30 32 H 29.7361 5.774 66.0483 0
M  V30 33 H 29.3527 8.6541 65.4924 0
M  V30 34 H 29.9812 8.0079 67.7847 0
M  V30 35 H 31.4732 7.2244 67.1627 0
M  V30 36 H 30.608 7.849 63.538 0
M  V30 37 H 31.8445 7.1228 64.6201 0
M  V30 38 H 30.7335 10.1883 66.9355 0
M  V30 39 H 31.9939 9.4769 67.9993 0
M  V30 40 H 32.6217 9.3145 63.8157 0
M  V30 41 H 31.115 10.0931 64.4073 0
M  V30 42 H 33.1597 8.7696 66.0576 0
M  V30 43 H 32.8901 10.3769 65.9553 0
M  V30 END ATOM
M  V30 BEGIN BOND
M  V30 1 1 1 2
M  V30 2 2 2 3
M  V30 3 1 2 4
M  V30 4 1 3 5
M  V30 5 1 3 6
M  V30 6 2 4 7
M  V30 7 1 5 8
M  V30 8 2 5 9
M  V30 9 2 6 10
M  V30 10 1 6 11
M  V30 11 1 11 12
M  V30 12 1 12 13
M  V30 13 2 12 14
M  V30 14 2 13 15
M  V30 15 1 13 16
M  V30 16 1 14 17
M  V30 17 2 16 18
M  V30 18 1 16 19
M  V30 19 1 19 20
M  V30 20 1 20 21
M  V30 21 1 20 22
M  V30 22 1 21 23
M  V30 23 1 22 24
M  V30 24 1 23 25
M  V30 25 1 7 9
M  V30 26 1 15 17
M  V30 27 1 24 25
M  V30 28 1 4 26
M  V30 29 1 7 27
M  V30 30 1 9 28
M  V30 31 1 11 29
M  V30 32 1 14 30
M  V30 33 1 17 31
M  V30 34 1 19 32
M  V30 35 1 20 33
M  V30 36 1 21 34
M  V30 37 1 21 35
M  V30 38 1 22 36
M  V30 39 1 22 37
M  V30 40 1 23 38
M  V30 41 1 23 39
M  V30 42 1 24 40
M  V30 43 1 24 41
M  V30 44 1 25 42
M  V30 45 1 25 43
M  V30 END BOND
M  V30 END CTAB
M  END
>  <Molecule Name>
OVPNQJVDAFNBDN-XWPUVDKMNA-O

>  <hs_clash>
0.0

>  <hs_total>
74.71041130376287

>  <Total Molweight>
383.258

>  <cLogP>
1.3926

>  <H-Acceptors>
7

>  <H-Donors>
4

>  <Polar Surface Area>
103.49

>  <Non-H Atoms>
25

>  <sp3-Atoms>
6

$$$$
PIMQWRZWLQKKBJ-SFHVURJKNA-N
Actelion Java MolfileCreator 2.0

  0  0  0  0  0  0              0 V3000
M  V30 BEGIN CTAB
M  V30 COUNTS 57 60 0 0 0
M  V30 BEGIN ATOM
M  V30 1 O 25.5654 6.623 61.1632 0
M  V30 2 C 26.3018 7.5162 60.3374 0
M  V30 3 C 26.0528 8.9676 60.6688 0
M  V30 4 C 26.3604 9.5179 62.0373 0 CFG=2
M  V30 5 N 27.7206 9.114 62.4599 0
M  V30 6 C 26.099 10.8701 62.5985 0
M  V30 7 C 28.078 7.9612 63.2223 0
M  V30 8 C 28.7645 9.9964 61.9464 0
M  V30 9 C 27.0084 11.7595 61.8771 0
M  V30 10 N 27.0469 6.9997 63.3718 0
M  V30 11 C 29.3779 7.827 63.8427 0
M  V30 12 C 28.405 11.435 62.1868 0
M  V30 13 C 27.3762 5.7925 64.1339 0
M  V30 14 C 29.642 6.6612 64.6005 0
M  V30 15 N 28.5903 5.6579 64.7396 0
M  V30 16 C 26.6101 4.6804 64.4531 0
M  V30 17 N 30.8995 6.3577 65.2524 0
M  V30 18 N 28.6229 4.4398 65.4107 0
M  V30 19 C 27.3935 3.8387 65.2193 0
M  V30 20 C 25.1779 4.398 63.968 0
M  V30 21 C 32.0294 7.176 64.9754 0
M  V30 22 C 25.1611 3.5261 62.7081 0
M  V30 23 C 32.0258 8.3152 65.975 0
M  V30 24 C 32.1865 9.7004 65.5281 0
M  V30 25 C 31.8055 7.9643 67.3849 0
M  V30 26 N 32.1461 10.7523 66.5552 0 CHG=1
M  V30 27 C 31.7561 9.0183 68.4017 0
M  V30 28 O 32.281 11.9358 66.2226 0 CHG=-1
M  V30 29 C 31.9279 10.4114 67.9841 0
M  V30 30 H 25.9635 6.5871 62.025 0
M  V30 31 H 26.0149 7.3417 59.29 0
M  V30 32 H 27.374 7.3067 60.4641 0
M  V30 33 H 26.6468 9.5571 59.9549 0
M  V30 34 H 24.9823 9.149 60.493 0
M  V30 35 H 25.7286 8.8842 62.6776 0
M  V30 36 H 25.0529 11.1646 62.4272 0
M  V30 37 H 26.3133 10.8896 63.6772 0
M  V30 38 H 29.7123 9.7702 62.4568 0
M  V30 39 H 28.8804 9.8284 60.8655 0
M  V30 40 H 26.8053 12.7998 62.1718 0
M  V30 41 H 26.8423 11.6458 60.7958 0
M  V30 42 H 30.1273 8.5967 63.7308 0
M  V30 43 H 29.0537 12.0636 61.5589 0
M  V30 44 H 28.5869 11.665 63.2473 0
M  V30 45 H 30.9717 5.5869 65.8855 0
M  V30 46 H 27.0953 2.8745 65.6037 0
M  V30 47 H 24.6829 5.355 63.7445 0
M  V30 48 H 24.6278 3.8789 64.7669 0
M  V30 49 H 32.9529 6.588 65.0803 0
M  V30 50 H 31.9622 7.5744 63.9524 0
M  V30 51 H 24.1207 3.3498 62.3974 0
M  V30 52 H 25.7031 4.0394 61.9002 0
M  V30 53 H 25.6479 2.5634 62.9225 0
M  V30 54 H 32.3292 9.9403 64.4849 0
M  V30 55 H 31.68 6.9307 67.6714 0
M  V30 56 H 31.5957 8.7723 69.4413 0
M  V30 57 H 31.8954 11.199 68.7228 0
M  V30 END ATOM
M  V30 BEGIN BOND
M  V30 1 1 1 2
M  V30 2 1 2 3
M  V30 3 1 3 4
M  V30 4 1 4 5
M  V30 5 1 4 6
M  V30 6 1 5 7
M  V30 7 1 5 8
M  V30 8 1 6 9
M  V30 9 2 7 10
M  V30 10 1 7 11
M  V30 11 1 8 12
M  V30 12 1 10 13
M  V30 13 2 11 14
M  V30 14 1 13 15
M  V30 15 2 13 16
M  V30 16 1 14 17
M  V30 17 1 15 18
M  V30 18 1 16 19
M  V30 19 1 16 20
M  V30 20 1 17 21
M  V30 21 1 20 22
M  V30 22 1 21 23
M  V30 23 2 23 24
M  V30 24 1 23 25
M  V30 25 1 24 26
M  V30 26 2 25 27
M  V30 27 1 26 28
M  V30 28 2 26 29
M  V30 29 1 9 12
M  V30 30 1 14 15
M  V30 31 2 18 19
M  V30 32 1 27 29
M  V30 33 1 1 30
M  V30 34 1 2 31
M  V30 35 1 2 32
M  V30 36 1 3 33
M  V30 37 1 3 34
M  V30 38 1 4 35
M  V30 39 1 6 36
M  V30 40 1 6 37
M  V30 41 1 8 38
M  V30 42 1 8 39
M  V30 43 1 9 40
M  V30 44 1 9 41
M  V30 45 1 11 42
M  V30 46 1 12 43
M  V30 47 1 12 44
M  V30 48 1 17 45
M  V30 49 1 19 46
M  V30 50 1 20 47
M  V30 51 1 20 48
M  V30 52 1 21 49
M  V30 53 1 21 50
M  V30 54 1 22 51
M  V30 55 1 22 52
M  V30 56 1 22 53
M  V30 57 1 24 54
M  V30 58 1 25 55
M  V30 59 1 27 56
M  V30 60 1 29 57
M  V30 END BOND
M  V30 BEGIN COLLECTION
M  V30 MDLV30/STERAC1 ATOMS=(1 4)
M  V30 END COLLECTION
M  V30 END CTAB
M  END
>  <Molecule Name>
PIMQWRZWLQKKBJ-SFHVURJKNA-N

>  <hs_clash>
0.0

>  <hs_total>
74.52732587416183

>  <Total Molweight>
396.493

>  <cLogP>
1.1283

>  <H-Acceptors>
8

>  <H-Donors>
2

>  <Polar Surface Area>
91.15

>  <Non-H Atoms>
29

>  <sp3-Atoms>
12

$$$$
ZXYIRNXOAJYLCU-XBXBPLPCNA-N
Actelion Java MolfileCreator 2.0

  0  0  0  0  0  0              0 V3000
M  V30 BEGIN CTAB
M  V30 COUNTS 59 63 0 0 0
M  V30 BEGIN ATOM
M  V30 1 S 24.6273 7.3367 60.669 0
M  V30 2 O 25.4988 6.4065 59.8627 0
M  V30 3 O 23.2182 6.9432 61.0022 0
M  V30 4 N 25.2706 7.5248 62.1256 0
M  V30 5 C 24.7551 9.0055 60.0587 0
M  V30 6 C 25.716 6.458 62.877 0
M  V30 7 C 25.308 8.9311 62.5334 0
M  V30 8 C 24.6963 9.7876 61.3722 0
M  V30 9 C 26.9795 6.4978 63.5375 0
M  V30 10 C 24.8861 5.2854 62.9868 0
M  V30 11 C 27.431 5.4031 64.2927 0
M  V30 12 C 25.3167 4.1696 63.7404 0
M  V30 13 C 28.6306 5.0711 65.0882 0
M  V30 14 C 26.554 4.2142 64.378 0
M  V30 15 N 28.4448 3.8377 65.5558 0
M  V30 16 N 29.8302 5.9269 65.315 0
M  V30 17 N 27.2529 3.3345 65.1545 0
M  V30 18 C 30.1915 7.1926 64.9398 0
M  V30 19 O 29.5367 7.9833 64.275 0
M  V30 20 C 31.6187 7.5734 65.4179 0
M  V30 21 C 31.6167 8.8044 66.2825 0
M  V30 22 C 31.354 10.1043 65.7397 0
M  V30 23 C 31.8724 8.6548 67.6544 0
M  V30 24 C 31.3561 11.2514 66.6207 0
M  V30 25 C 31.8748 9.7599 68.5078 0
M  V30 26 C 31.623 11.0569 68.0258 0
M  V30 27 N 31.6493 12.1393 68.9411 0
M  V30 28 C 32.6362 13.2321 68.7168 0
M  V30 29 C 30.7208 12.1105 70.135 0
M  V30 30 C 32.3831 14.5171 69.539 0
M  V30 31 C 30.6512 13.4312 70.965 0
M  V30 32 C 32.0144 14.1504 70.9848 0
M  V30 33 H 23.9151 9.2616 59.3961 0
M  V30 34 H 25.7042 9.1727 59.5287 0
M  V30 35 H 24.7171 9.0699 63.451 0
M  V30 36 H 26.3479 9.2393 62.717 0
M  V30 37 H 23.6484 10.0258 61.6083 0
M  V30 38 H 25.2695 10.7207 61.2669 0
M  V30 39 H 27.5963 7.3806 63.4562 0
M  V30 40 H 23.9274 5.2591 62.4902 0
M  V30 41 H 24.6926 3.2918 63.8209 0
M  V30 42 H 30.5297 5.4731 65.8672 0
M  V30 43 H 26.9223 2.423 65.3989 0
M  V30 44 H 32.2499 7.7601 64.5368 0
M  V30 45 H 32.0344 6.7348 65.996 0
M  V30 46 H 31.1565 10.226 64.685 0
M  V30 47 H 32.0699 7.6718 68.0557 0
M  V30 48 H 31.1605 12.2401 66.2325 0
M  V30 49 H 32.0738 9.6159 69.5595 0
M  V30 50 H 33.6341 12.8503 68.9785 0
M  V30 51 H 32.6138 13.4994 67.6499 0
M  V30 52 H 29.7073 11.8857 69.7708 0
M  V30 53 H 31.056 11.3061 70.8058 0
M  V30 54 H 33.2933 15.1345 69.5405 0
M  V30 55 H 31.5564 15.0838 69.085 0
M  V30 56 H 29.9001 14.0982 70.5164 0
M  V30 57 H 30.3575 13.1911 71.9976 0
M  V30 58 H 32.781 13.4842 71.407 0
M  V30 59 H 31.9453 15.0633 71.5949 0
M  V30 END ATOM
M  V30 BEGIN BOND
M  V30 1 2 1 2
M  V30 2 2 1 3
M  V30 3 1 1 4
M  V30 4 1 1 5
M  V30 5 1 4 6
M  V30 6 1 4 7
M  V30 7 1 5 8
M  V30 8 2 6 9
M  V30 9 1 6 10
M  V30 10 1 9 11
M  V30 11 2 10 12
M  V30 12 1 11 13
M  V30 13 2 11 14
M  V30 14 2 13 15
M  V30 15 1 13 16
M  V30 16 1 14 17
M  V30 17 1 16 18
M  V30 18 2 18 19
M  V30 19 1 18 20
M  V30 20 1 20 21
M  V30 21 2 21 22
M  V30 22 1 21 23
M  V30 23 1 22 24
M  V30 24 2 23 25
M  V30 25 2 24 26
M  V30 26 1 26 27
M  V30 27 1 27 28
M  V30 28 1 27 29
M  V30 29 1 28 30
M  V30 30 1 29 31
M  V30 31 1 30 32
M  V30 32 1 7 8
M  V30 33 1 12 14
M  V30 34 1 15 17
M  V30 35 1 25 26
M  V30 36 1 31 32
M  V30 37 1 5 33
M  V30 38 1 5 34
M  V30 39 1 7 35
M  V30 40 1 7 36
M  V30 41 1 8 37
M  V30 42 1 8 38
M  V30 43 1 9 39
M  V30 44 1 10 40
M  V30 45 1 12 41
M  V30 46 1 16 42
M  V30 47 1 17 43
M  V30 48 1 20 44
M  V30 49 1 20 45
M  V30 50 1 22 46
M  V30 51 1 23 47
M  V30 52 1 24 48
M  V30 53 1 25 49
M  V30 54 1 28 50
M  V30 55 1 28 51
M  V30 56 1 29 52
M  V30 57 1 29 53
M  V30 58 1 30 54
M  V30 59 1 30 55
M  V30 60 1 31 56
M  V30 61 1 31 57
M  V30 62 1 32 58
M  V30 63 1 32 59
M  V30 END BOND
M  V30 END CTAB
M  END
>  <Molecule Name>
ZXYIRNXOAJYLCU-XBXBPLPCNA-N

>  <hs_clash>
0.0

>  <hs_total>
74.52506988702476

>  <Total Molweight>
453.565

>  <cLogP>
2.0231

>  <H-Acceptors>
8

>  <H-Donors>
2

>  <Polar Surface Area>
106.78

>  <Non-H Atoms>
32

>  <sp3-Atoms>
10

$$$$
HYVABZIGRDEKCD-KZZMUEETNA-N
Actelion Java MolfileCreator 2.0

  0  0  0  0  0  0              0 V3000
M  V30 BEGIN CTAB
M  V30 COUNTS 28 29 0 0 0
M  V30 BEGIN ATOM
M  V30 1 N 28.5738 6.8699 64.777 0
M  V30 2 C 27.6158 6.649 63.8651 0
M  V30 3 C 28.9333 6.0324 65.6941 0
M  V30 4 N 27.3116 7.6858 62.9174 0
M  V30 5 C 26.9995 5.349 63.9279 0
M  V30 6 N 28.3711 4.8523 65.8604 0
M  V30 7 C 28.2216 8.7967 62.5661 0
M  V30 8 N 25.9839 4.7413 63.159 0
M  V30 9 C 27.3551 4.4597 64.9228 0
M  V30 10 C 27.7902 10.2558 62.6275 0
M  V30 11 C 25.8188 3.5726 63.7518 0
M  V30 12 N 26.6597 3.3136 64.7869 0
M  V30 13 C 26.7501 10.9096 62.0444 0
M  V30 14 C 26.887 11.4748 60.6271 0
M  V30 15 C 25.7014 11.6314 62.8667 0
M  V30 16 H 29.7365 6.3151 66.3588 0
M  V30 17 H 26.3432 7.9348 62.891 0
M  V30 18 H 28.5399 8.6151 61.5292 0
M  V30 19 H 29.0886 8.7058 63.2372 0
M  V30 20 H 28.4207 10.8814 63.242 0
M  V30 21 H 25.0641 2.8684 63.4341 0
M  V30 22 H 26.7428 2.4723 65.321 0
M  V30 23 H 27.6593 10.9133 60.0812 0
M  V30 24 H 25.9253 11.3821 60.1011 0
M  V30 25 H 27.1742 12.5355 60.6816 0
M  V30 26 H 25.6485 11.1834 63.87 0
M  V30 27 H 25.9711 12.6943 62.9538 0
M  V30 28 H 24.7222 11.5409 62.3732 0
M  V30 END ATOM
M  V30 BEGIN BOND
M  V30 1 2 1 2
M  V30 2 1 1 3
M  V30 3 1 2 4
M  V30 4 1 2 5
M  V30 5 2 3 6
M  V30 6 1 4 7
M  V30 7 1 5 8
M  V30 8 2 5 9
M  V30 9 1 7 10
M  V30 10 2 8 11
M  V30 11 1 9 12
M  V30 12 2 10 13
M  V30 13 1 13 14
M  V30 14 1 13 15
M  V30 15 1 6 9
M  V30 16 1 11 12
M  V30 17 1 3 16
M  V30 18 1 4 17
M  V30 19 1 7 18
M  V30 20 1 7 19
M  V30 21 1 10 20
M  V30 22 1 11 21
M  V30 23 1 12 22
M  V30 24 1 14 23
M  V30 25 1 14 24
M  V30 26 1 14 25
M  V30 27 1 15 26
M  V30 28 1 15 27
M  V30 29 1 15 28
M  V30 END BOND
M  V30 END CTAB
M  END
>  <Molecule Name>
HYVABZIGRDEKCD-KZZMUEETNA-N

>  <hs_clash>
0.0

>  <hs_total>
74.33143944017485

>  <Total Molweight>
203.248

>  <cLogP>
1.6466

>  <H-Acceptors>
5

>  <H-Donors>
2

>  <Polar Surface Area>
66.49

>  <Non-H Atoms>
15

>  <sp3-Atoms>
3

$$$$
CXBHMSHVCKEEGW-XJDASBHANA-O
Actelion Java MolfileCreator 2.0

  0  0  0  0  0  0              0 V3000
M  V30 BEGIN CTAB
M  V30 COUNTS 43 45 0 0 0
M  V30 BEGIN ATOM
M  V30 1 F 27.0542 6.7824 60.6559 0
M  V30 2 C 25.7877 7.2396 60.6656 0
M  V30 3 C 24.8698 6.6229 61.5209 0
M  V30 4 C 25.4275 8.3078 59.8517 0
M  V30 5 C 23.5753 7.1111 61.5314 0
M  V30 6 C 25.2855 5.4846 62.404 0
M  V30 7 C 24.1232 8.7697 59.8713 0
M  V30 8 F 22.6699 6.5203 62.336 0
M  V30 9 C 23.188 8.1698 60.7097 0
M  V30 10 O 24.7912 4.3381 62.279 0
M  V30 11 N 26.2312 5.783 63.3089 0
M  V30 12 C 26.8402 4.8838 64.1683 0
M  V30 13 C 27.9296 5.1963 64.9829 0
M  V30 14 C 26.5688 3.5653 64.3959 0
M  V30 15 N 28.3066 4.1115 65.685 0
M  V30 16 C 28.6055 6.5201 65.0817 0
M  V30 17 N 27.4647 3.1233 65.3064 0
M  V30 18 O 28.0953 7.5204 64.5932 0
M  V30 19 N 29.7843 6.569 65.7232 0
M  V30 20 C 30.5246 7.8244 65.8429 0
M  V30 21 C 31.6325 7.9316 64.7868 0
M  V30 22 C 31.1123 7.9917 67.2457 0
M  V30 23 C 32.4356 9.2355 64.9502 0
M  V30 24 C 31.858 9.3201 67.3474 0
M  V30 25 N 32.9575 9.3692 66.3401 0 CHG=1
M  V30 26 H 26.1599 8.7734 59.2092 0
M  V30 27 H 23.8312 9.5942 59.2374 0
M  V30 28 H 22.1669 8.5225 60.7241 0
M  V30 29 H 26.5213 6.7382 63.3676 0
M  V30 30 H 25.7844 2.984 63.9345 0
M  V30 31 H 27.5003 2.1868 65.655 0
M  V30 32 H 30.1613 5.7347 66.1251 0
M  V30 33 H 29.8256 8.6571 65.6749 0
M  V30 34 H 32.3139 7.075 64.8939 0
M  V30 35 H 31.1764 7.9147 63.7859 0
M  V30 36 H 31.8101 7.1661 67.4484 0
M  V30 37 H 30.2986 7.974 67.9858 0
M  V30 38 H 33.2814 9.2277 64.2474 0
M  V30 39 H 31.7815 10.0916 64.7276 0
M  V30 40 H 31.1563 10.1465 67.1608 0
M  V30 41 H 32.2841 9.4218 68.3564 0
M  V30 42 H 33.4358 10.2433 66.4246 0
M  V30 43 H 33.5959 8.6211 66.5203 0
M  V30 END ATOM
M  V30 BEGIN BOND
M  V30 1 1 1 2
M  V30 2 2 2 3
M  V30 3 1 2 4
M  V30 4 1 3 5
M  V30 5 1 3 6
M  V30 6 2 4 7
M  V30 7 1 5 8
M  V30 8 2 5 9
M  V30 9 2 6 10
M  V30 10 1 6 11
M  V30 11 1 11 12
M  V30 12 1 12 13
M  V30 13 2 12 14
M  V30 14 2 13 15
M  V30 15 1 13 16
M  V30 16 1 14 17
M  V30 17 2 16 18
M  V30 18 1 16 19
M  V30 19 1 19 20
M  V30 20 1 20 21
M  V30 21 1 20 22
M  V30 22 1 21 23
M  V30 23 1 22 24
M  V30 24 1 23 25
M  V30 25 1 7 9
M  V30 26 1 15 17
M  V30 27 1 24 25
M  V30 28 1 4 26
M  V30 29 1 7 27
M  V30 30 1 9 28
M  V30 31 1 11 29
M  V30 32 1 14 30
M  V30 33 1 17 31
M  V30 34 1 19 32
M  V30 35 1 20 33
M  V30 36 1 21 34
M  V30 37 1 21 35
M  V30 38 1 22 36
M  V30 39 1 22 37
M  V30 40 1 23 38
M  V30 41 1 23 39
M  V30 42 1 24 40
M  V30 43 1 24 41
M  V30 44 1 25 42
M  V30 45 1 25 43
M  V30 END BOND
M  V30 END CTAB
M  END
>  <Molecule Name>
CXBHMSHVCKEEGW-XJDASBHANA-O

>  <hs_clash>
0.0

>  <hs_total>
73.84150564552019

>  <Total Molweight>
350.348

>  <cLogP>
0.3822

>  <H-Acceptors>
7

>  <H-Donors>
4

>  <Polar Surface Area>
103.49

>  <Non-H Atoms>
25

>  <sp3-Atoms>
6

$$$$
MEZFDQUDLQCVNX-QWOVJGMINA-N
Actelion Java MolfileCreator 2.0

  0  0  0  0  0  0              0 V3000
M  V30 BEGIN CTAB
M  V30 COUNTS 37 39 0 0 0
M  V30 BEGIN ATOM
M  V30 1 S 25.2248 7.4152 62.6128 0
M  V30 2 C 24.8745 5.8685 63.1517 0
M  V30 3 C 23.8702 7.3405 61.6056 0
M  V30 4 C 25.7916 5.1677 63.9511 0
M  V30 5 C 23.6379 5.3384 62.5078 0
M  V30 6 N 23.0419 6.2827 61.743 0
M  V30 7 C 23.4614 8.5749 60.8402 0
M  V30 8 N 26.94 5.7359 64.3775 0
M  V30 9 C 25.5094 3.8845 64.3949 0
M  V30 10 C 22.8405 4.0726 62.6749 0
M  V30 11 C 27.8037 5.0709 65.1659 0
M  V30 12 C 26.4302 3.2241 65.1964 0
M  V30 13 N 27.5535 3.8296 65.5661 0
M  V30 14 N 28.9579 5.6016 65.6225 0
M  V30 15 C 29.4952 6.7981 65.2891 0
M  V30 16 C 28.8929 7.7508 64.4773 0
M  V30 17 C 30.7263 7.0628 65.8546 0
M  V30 18 C 29.5408 8.9601 64.238 0
M  V30 19 C 31.3624 8.2702 65.632 0
M  V30 20 C 30.7739 9.2387 64.8314 0
M  V30 21 C 31.5432 10.5229 64.6088 0
M  V30 22 F 30.7304 11.5408 64.3796 0
M  V30 23 F 32.3442 10.3773 63.5608 0
M  V30 24 F 32.2808 10.8032 65.6774 0
M  V30 25 H 24.2823 8.8839 60.1766 0
M  V30 26 H 22.5672 8.3538 60.2388 0
M  V30 27 H 23.236 9.387 61.5473 0
M  V30 28 H 24.5821 3.4038 64.1198 0
M  V30 29 H 22.4783 4.0009 63.7114 0
M  V30 30 H 21.9821 4.0865 61.9871 0
M  V30 31 H 23.478 3.2054 62.4487 0
M  V30 32 H 26.2325 2.2132 65.5212 0
M  V30 33 H 29.3264 5.1808 66.4518 0
M  V30 34 H 27.9276 7.555 64.0342 0
M  V30 35 H 31.198 6.318 66.4783 0
M  V30 36 H 29.0843 9.691 63.5867 0
M  V30 37 H 32.324 8.4607 66.0852 0
M  V30 END ATOM
M  V30 BEGIN BOND
M  V30 1 1 1 2
M  V30 2 1 1 3
M  V30 3 1 2 4
M  V30 4 2 2 5
M  V30 5 2 3 6
M  V30 6 1 3 7
M  V30 7 2 4 8
M  V30 8 1 4 9
M  V30 9 1 5 10
M  V30 10 1 8 11
M  V30 11 2 9 12
M  V30 12 2 11 13
M  V30 13 1 11 14
M  V30 14 1 14 15
M  V30 15 2 15 16
M  V30 16 1 15 17
M  V30 17 1 16 18
M  V30 18 2 17 19
M  V30 19 2 18 20
M  V30 20 1 20 21
M  V30 21 1 21 22
M  V30 22 1 21 23
M  V30 23 1 21 24
M  V30 24 1 5 6
M  V30 25 1 12 13
M  V30 26 1 19 20
M  V30 27 1 7 25
M  V30 28 1 7 26
M  V30 29 1 7 27
M  V30 30 1 9 28
M  V30 31 1 10 29
M  V30 32 1 10 30
M  V30 33 1 10 31
M  V30 34 1 12 32
M  V30 35 1 14 33
M  V30 36 1 16 34
M  V30 37 1 17 35
M  V30 38 1 18 36
M  V30 39 1 19 37
M  V30 END BOND
M  V30 END CTAB
M  END
>  <Molecule Name>
MEZFDQUDLQCVNX-QWOVJGMINA-N

>  <hs_clash>
0.0

>  <hs_total>
73.72975811827573

>  <Total Molweight>
350.367

>  <cLogP>
4.4058

>  <H-Acceptors>
4

>  <H-Donors>
1

>  <Polar Surface Area>
78.94

>  <Non-H Atoms>
24

>  <sp3-Atoms>
3

$$$$
KBLPHMRCKHFBJB-SWZULDEBNA-O
Actelion Java MolfileCreator 2.0

  0  0  0  0  0  0              0 V3000
M  V30 BEGIN CTAB
M  V30 COUNTS 52 57 0 0 0
M  V30 BEGIN ATOM
M  V30 1 O 28.4461 4.4459 66.0335 0
M  V30 2 C 28.526 5.5488 65.4999 0
M  V30 3 N 29.6439 6.4042 65.688 0
M  V30 4 C 27.3347 5.9859 64.6059 0
M  V30 5 C 29.8184 7.6508 65.1549 0
M  V30 6 N 27.5627 7.2656 64.1278 0
M  V30 7 C 26.2317 5.1617 64.0231 0
M  V30 8 C 28.663 8.0693 64.3357 0
M  V30 9 C 30.9443 8.5795 65.2562 0
M  V30 10 C 25.1863 5.8231 63.0916 0
M  V30 11 C 26.3018 3.7055 64.1338 0
M  V30 12 C 28.6671 9.3694 63.6778 0
M  V30 13 C 30.9717 9.8904 64.5793 0
M  V30 14 N 24.8411 7.089 62.7108 0
M  V30 15 C 24.2836 4.9601 62.2736 0
M  V30 16 C 25.3881 2.9165 63.3231 0
M  V30 17 O 27.4551 9.574 63.0219 0
M  V30 18 C 29.8141 10.2906 63.7801 0
M  V30 19 N 23.872 7.2173 61.7486 0
M  V30 20 C 23.5131 5.9195 61.4679 0
M  V30 21 C 24.4009 3.5022 62.4052 0
M  V30 22 C 27.3119 10.619 62.0631 0 CFG=2
M  V30 23 C 23.3249 8.4334 61.1297 0
M  V30 24 O 22.6564 5.595 60.6425 0
M  V30 25 C 25.8564 10.7011 61.5893 0
M  V30 26 C 27.7205 10.1729 60.6668 0
M  V30 27 C 24.335 9.1036 60.1993 0
M  V30 28 N 25.6206 9.4272 60.8577 0 CHG=1 CFG=1
M  V30 29 C 26.8671 9.0123 60.1607 0 CFG=2
M  V30 30 C 27.367 7.6663 60.6968 0
M  V30 31 H 30.3794 6.0589 66.2711 0
M  V30 32 H 31.7959 8.2919 65.8551 0
M  V30 33 H 27.01 3.2309 64.797 0
M  V30 34 H 31.8287 10.5408 64.6721 0
M  V30 35 H 25.278 7.8913 63.1178 0
M  V30 36 H 25.4378 1.8405 63.3997 0
M  V30 37 H 29.7994 11.2446 63.2734 0
M  V30 38 H 23.7584 2.857 61.8245 0
M  V30 39 H 27.7331 11.5916 62.3581 0
M  V30 40 H 22.43 8.1652 60.5489 0
M  V30 41 H 23.0477 9.143 61.9236 0
M  V30 42 H 25.7147 11.5634 60.9212 0
M  V30 43 H 25.1736 10.7868 62.4478 0
M  V30 44 H 27.6086 11.0223 59.9766 0
M  V30 45 H 28.7731 9.8553 60.69 0
M  V30 46 H 23.8933 10.0371 59.8203 0
M  V30 47 H 24.5361 8.4249 59.3575 0
M  V30 48 H 25.6086 8.7774 61.6178 0
M  V30 49 H 26.767 9.0135 59.0655 0
M  V30 50 H 28.2881 7.3799 60.1679 0
M  V30 51 H 27.5748 7.7549 61.7734 0
M  V30 52 H 26.5968 6.898 60.5339 0
M  V30 END ATOM
M  V30 BEGIN BOND
M  V30 1 2 1 2
M  V30 2 1 2 3
M  V30 3 1 2 4
M  V30 4 1 3 5
M  V30 5 2 4 6
M  V30 6 1 4 7
M  V30 7 2 5 8
M  V30 8 1 5 9
M  V30 9 2 7 10
M  V30 10 1 7 11
M  V30 11 1 8 12
M  V30 12 2 9 13
M  V30 13 1 10 14
M  V30 14 1 10 15
M  V30 15 2 11 16
M  V30 16 1 12 17
M  V30 17 2 12 18
M  V30 18 1 14 19
M  V30 19 1 15 20
M  V30 20 2 15 21
M  V30 21 1 17 22
M  V30 22 1 19 23
M  V30 23 2 20 24
M  V30 24 1 22 25
M  V30 25 1 22 26
M  V30 26 1 23 27
M  V30 27 1 25 28
M  V30 28 1 26 29
M  V30 29 1 29 30
M  V30 30 1 6 8
M  V30 31 1 13 18
M  V30 32 1 16 21
M  V30 33 1 19 20
M  V30 34 1 27 28
M  V30 35 1 28 29
M  V30 36 1 3 31
M  V30 37 1 9 32
M  V30 38 1 11 33
M  V30 39 1 13 34
M  V30 40 1 14 35
M  V30 41 1 16 36
M  V30 42 1 18 37
M  V30 43 1 21 38
M  V30 44 1 22 39
M  V30 45 1 23 40
M  V30 46 1 23 41
M  V30 47 1 25 42
M  V30 48 1 25 43
M  V30 49 1 26 44
M  V30 50 1 26 45
M  V30 51 1 27 46
M  V30 52 1 27 47
M  V30 53 1 28 48
M  V30 54 1 29 49
M  V30 55 1 30 50
M  V30 56 1 30 51
M  V30 57 1 30 52
M  V30 END BOND
M  V30 BEGIN COLLECTION
M  V30 MDLV30/STERAC1 ATOMS=(3 22 28 29)
M  V30 END COLLECTION
M  V30 END CTAB
M  END
>  <Molecule Name>
KBLPHMRCKHFBJB-SWZULDEBNA-O

>  <hs_clash>
1.0

>  <hs_total>
73.14804843388139

>  <Total Molweight>
404.449

>  <cLogP>
-1.5088

>  <H-Acceptors>
8

>  <H-Donors>
3

>  <Polar Surface Area>
87.47

>  <Non-H Atoms>
30

>  <sp3-Atoms>
10

$$$$
UHCHLTQBLNUYRT-FIXGVCBTNA-N
Actelion Java MolfileCreator 2.0

  0  0  0  0  0  0              0 V3000
M  V30 BEGIN CTAB
M  V30 COUNTS 51 54 0 0 0
M  V30 BEGIN ATOM
M  V30 1 Cl 23.9821 10.4323 63.0097 0
M  V30 2 C 24.3726 9.455 61.954 0
M  V30 3 C 23.672 8.2791 61.7183 0
M  V30 4 C 25.4809 9.762 61.1953 0
M  V30 5 C 24.1133 7.4384 60.713 0
M  V30 6 C 22.4496 7.9185 62.5329 0 CFG=1
M  V30 7 C 25.9099 8.911 60.2026 0
M  V30 8 C 25.2239 7.7437 59.9601 0
M  V30 9 O 22.1939 6.5128 62.7387 0
M  V30 10 C 21.2346 8.4804 61.8289 0
M  V30 11 C 23.2756 5.7559 63.0519 0
M  V30 12 C 23.4822 4.5521 62.4121 0
M  V30 13 C 24.2962 6.0699 63.9924 0
M  V30 14 S 24.9149 3.7941 62.9675 0
M  V30 15 C 22.7076 3.899 61.4075 0
M  V30 16 C 25.2553 5.0821 64.0442 0
M  V30 17 O 23.0662 2.9024 60.7998 0
M  V30 18 N 21.5186 4.5313 61.1792 0
M  V30 19 N 26.4319 5.0153 64.7703 0
M  V30 20 C 27.3149 6.0406 64.9939 0
M  V30 21 C 26.9581 3.8994 65.3577 0
M  V30 22 C 28.3405 5.4775 65.7315 0
M  V30 23 C 27.2845 7.3696 64.6204 0
M  V30 24 N 28.1043 4.1463 65.95 0
M  V30 25 C 29.4155 6.249 66.1405 0
M  V30 26 C 28.3671 8.1217 65.0385 0
M  V30 27 C 29.3964 7.5805 65.775 0
M  V30 28 O 28.5063 9.4773 64.7549 0
M  V30 29 O 30.4097 8.4659 66.1196 0
M  V30 30 C 27.4007 9.9412 63.9969 0
M  V30 31 C 31.3906 7.7794 66.8732 0
M  V30 32 H 26.0186 10.6802 61.3816 0
M  V30 33 H 23.575 6.5233 60.5147 0
M  V30 34 H 22.5345 8.4128 63.512 0
M  V30 35 H 26.7821 9.1589 59.616 0
M  V30 36 H 25.5551 7.0705 59.1834 0
M  V30 37 H 21.3796 9.5558 61.6479 0
M  V30 38 H 21.0952 7.9626 60.8686 0
M  V30 39 H 20.3447 8.3318 62.4585 0
M  V30 40 H 24.3164 6.9691 64.5907 0
M  V30 41 H 20.8911 4.1803 60.4843 0
M  V30 42 H 21.2752 5.3451 61.7074 0
M  V30 43 H 26.4864 2.9281 65.3373 0
M  V30 44 H 26.4742 7.7911 64.0439 0
M  V30 45 H 30.2274 5.8306 66.7164 0
M  V30 46 H 27.5264 11.0127 63.7818 0
M  V30 47 H 27.3438 9.3816 63.0517 0
M  V30 48 H 26.4737 9.7888 64.5696 0
M  V30 49 H 32.196 8.4761 67.1491 0
M  V30 50 H 30.9318 7.37 67.7856 0
M  V30 51 H 31.8064 6.9579 66.2716 0
M  V30 END ATOM
M  V30 BEGIN BOND
M  V30 1 1 1 2
M  V30 2 2 2 3
M  V30 3 1 2 4
M  V30 4 1 3 5
M  V30 5 1 3 6
M  V30 6 2 4 7
M  V30 7 2 5 8
M  V30 8 1 6 9
M  V30 9 1 6 10
M  V30 10 1 9 11
M  V30 11 2 11 12
M  V30 12 1 11 13
M  V30 13 1 12 14
M  V30 14 1 12 15
M  V30 15 2 13 16
M  V30 16 2 15 17
M  V30 17 1 15 18
M  V30 18 1 16 19
M  V30 19 1 19 20
M  V30 20 1 19 21
M  V30 21 2 20 22
M  V30 22 1 20 23
M  V30 23 2 21 24
M  V30 24 1 22 25
M  V30 25 2 23 26
M  V30 26 2 25 27
M  V30 27 1 26 28
M  V30 28 1 27 29
M  V30 29 1 28 30
M  V30 30 1 29 31
M  V30 31 1 7 8
M  V30 32 1 14 16
M  V30 33 1 22 24
M  V30 34 1 26 27
M  V30 35 1 4 32
M  V30 36 1 5 33
M  V30 37 1 6 34
M  V30 38 1 7 35
M  V30 39 1 8 36
M  V30 40 1 10 37
M  V30 41 1 10 38
M  V30 42 1 10 39
M  V30 43 1 13 40
M  V30 44 1 18 41
M  V30 45 1 18 42
M  V30 46 1 21 43
M  V30 47 1 23 44
M  V30 48 1 25 45
M  V30 49 1 30 46
M  V30 50 1 30 47
M  V30 51 1 30 48
M  V30 52 1 31 49
M  V30 53 1 31 50
M  V30 54 1 31 51
M  V30 END BOND
M  V30 BEGIN COLLECTION
M  V30 MDLV30/STERAC1 ATOMS=(1 6)
M  V30 END COLLECTION
M  V30 END CTAB
M  END
>  <Molecule Name>
UHCHLTQBLNUYRT-FIXGVCBTNA-N

>  <hs_clash>
0.0

>  <hs_total>
72.82649959771882

>  <Total Molweight>
457.937

>  <cLogP>
4.1274

>  <H-Acceptors>
7

>  <H-Donors>
1

>  <Polar Surface Area>
116.84

>  <Non-H Atoms>
31

>  <sp3-Atoms>
7

$$$$
BWTHJLODYBOEIY-XUAJRXOWNA-N
Actelion Java MolfileCreator 2.0

  0  0  0  0  0  0              0 V3000
M  V30 BEGIN CTAB
M  V30 COUNTS 32 34 0 0 0
M  V30 BEGIN ATOM
M  V30 1 Br 23.4289 6.5383 60.6501 0
M  V30 2 C 24.3604 5.4743 61.8547 0
M  V30 3 C 25.5095 6.0437 62.6094 0
M  V30 4 C 23.9587 4.0482 61.9917 0
M  V30 5 C 26.2242 5.1372 63.5227 0
M  V30 6 C 24.7408 3.1816 62.892 0
M  V30 7 C 27.3401 5.368 64.3693 0
M  V30 8 C 25.858 3.745 63.6759 0
M  V30 9 N 28.0879 6.5947 64.5847 0
M  V30 10 C 27.5722 4.07 65.045 0
M  V30 11 N 26.6871 3.1504 64.5648 0
M  V30 12 N 29.3044 6.6093 64.8246 0
M  V30 13 O 28.4411 3.9354 65.9023 0
M  V30 14 C 30.1147 7.6952 64.7849 0
M  V30 15 C 31.1498 7.7548 65.8315 0
M  V30 16 C 30.0546 8.7602 63.7245 0
M  V30 17 C 32.1429 8.8355 65.8085 0
M  V30 18 C 31.0328 9.8444 63.7103 0
M  V30 19 C 32.0806 9.8869 64.7613 0
M  V30 20 S 33.5169 10.9069 64.6076 0
M  V30 21 O 34.5814 10.0341 64.1962 0
M  V30 22 O 33.6309 11.5561 65.8809 0
M  V30 23 N 33.3382 12.1013 63.4935 0
M  V30 24 H 25.8056 7.0759 62.4922 0
M  V30 25 H 23.1135 3.6575 61.4443 0
M  V30 26 H 24.4963 2.1331 62.9784 0
M  V30 27 H 31.1774 7.0078 66.6111 0
M  V30 28 H 29.2833 8.7229 62.9692 0
M  V30 29 H 32.9219 8.8665 66.5561 0
M  V30 30 H 30.9946 10.6058 62.9452 0
M  V30 31 H 34.2274 12.3172 63.0902 0
M  V30 32 H 32.712 11.7971 62.7755 0
M  V30 END ATOM
M  V30 BEGIN BOND
M  V30 1 1 1 2
M  V30 2 2 2 3
M  V30 3 1 2 4
M  V30 4 1 3 5
M  V30 5 2 4 6
M  V30 6 2 5 7
M  V30 7 1 5 8
M  V30 8 1 7 9
M  V30 9 1 7 10
M  V30 10 2 8 11
M  V30 11 2 9 12
M  V30 12 2 10 13
M  V30 13 1 12 14
M  V30 14 2 14 15
M  V30 15 1 14 16
M  V30 16 1 15 17
M  V30 17 2 16 18
M  V30 18 2 17 19
M  V30 19 1 19 20
M  V30 20 2 20 21
M  V30 21 2 20 22
M  V30 22 1 20 23
M  V30 23 1 6 8
M  V30 24 1 10 11
M  V30 25 1 18 19
M  V30 26 1 3 24
M  V30 27 1 4 25
M  V30 28 1 6 26
M  V30 29 1 15 27
M  V30 30 1 16 28
M  V30 31 1 17 29
M  V30 32 1 18 30
M  V30 33 1 23 31
M  V30 34 1 23 32
M  V30 END BOND
M  V30 END CTAB
M  END
>  <Molecule Name>
BWTHJLODYBOEIY-XUAJRXOWNA-N

>  <hs_clash>
11.0

>  <hs_total>
72.24013490449857

>  <Total Molweight>
393.220

>  <cLogP>
1.1928

>  <H-Acceptors>
7

>  <H-Donors>
1

>  <Polar Surface Area>
122.69

>  <Non-H Atoms>
23

>  <sp3-Atoms>
1

$$$$
NLHYHLPSUOFMHW-DXMPFREMNA-N
Actelion Java MolfileCreator 2.0

  0  0  0  0  0  0              0 V3000
M  V30 BEGIN CTAB
M  V30 COUNTS 26 27 0 0 0
M  V30 BEGIN ATOM
M  V30 1 S 27.963 6.2391 64.0698 0
M  V30 2 C 28.9317 5.327 65.1568 0
M  V30 3 C 26.9874 4.8813 63.7927 0
M  V30 4 N 28.5321 4.062 65.3085 0
M  V30 5 N 30.0204 5.8212 65.8633 0
M  V30 6 C 27.4316 3.7973 64.5419 0
M  V30 7 C 25.8158 4.9077 62.8551 0
M  V30 8 C 30.7686 6.9595 65.6669 0
M  V30 9 N 26.8604 2.5921 64.5352 0
M  V30 10 O 25.1133 3.9029 62.6727 0
M  V30 11 N 25.5843 6.0689 62.226 0
M  V30 12 C 30.5705 7.9797 64.5346 0
M  V30 13 C 31.8407 7.2124 66.6545 0
M  V30 14 C 31.392 9.1412 64.4275 0
M  V30 15 C 32.6642 8.3959 66.5419 0
M  V30 16 C 32.4535 9.367 65.4369 0
M  V30 17 H 30.5784 5.0803 66.2369 0
M  V30 18 H 27.3598 1.9826 65.1506 0
M  V30 19 H 26.0748 2.5989 63.9165 0
M  V30 20 H 24.8222 6.1459 61.583 0
M  V30 21 H 26.1733 6.8581 62.3997 0
M  V30 22 H 29.7927 7.8139 63.8039 0
M  V30 23 H 32.0086 6.513 67.4601 0
M  V30 24 H 31.2426 9.846 63.6229 0
M  V30 25 H 33.4416 8.5761 67.2697 0
M  V30 26 H 33.0791 10.2447 65.3692 0
M  V30 END ATOM
M  V30 BEGIN BOND
M  V30 1 1 1 2
M  V30 2 1 1 3
M  V30 3 2 2 4
M  V30 4 1 2 5
M  V30 5 2 3 6
M  V30 6 1 3 7
M  V30 7 1 5 8
M  V30 8 1 6 9
M  V30 9 2 7 10
M  V30 10 1 7 11
M  V30 11 2 8 12
M  V30 12 1 8 13
M  V30 13 1 12 14
M  V30 14 2 13 15
M  V30 15 2 14 16
M  V30 16 1 4 6
M  V30 17 1 15 16
M  V30 18 1 5 17
M  V30 19 1 9 18
M  V30 20 1 9 19
M  V30 21 1 11 20
M  V30 22 1 11 21
M  V30 23 1 12 22
M  V30 24 1 13 23
M  V30 25 1 14 24
M  V30 26 1 15 25
M  V30 27 1 16 26
M  V30 END BOND
M  V30 END CTAB
M  END
>  <Molecule Name>
NLHYHLPSUOFMHW-DXMPFREMNA-N

>  <hs_clash>
0.0

>  <hs_total>
72.02363584380495

>  <Total Molweight>
234.282

>  <cLogP>
1.6589

>  <H-Acceptors>
5

>  <H-Donors>
3

>  <Polar Surface Area>
122.27

>  <Non-H Atoms>
16

>  <sp3-Atoms>
0

$$$$
FGGSNQOBRJVAKL-UYBDAZJANA-N
Actelion Java MolfileCreator 2.0

  0  0  0  0  0  0              0 V3000
M  V30 BEGIN CTAB
M  V30 COUNTS 42 44 0 0 0
M  V30 BEGIN ATOM
M  V30 1 S 25.1533 7.4471 62.5129 0
M  V30 2 C 24.9876 5.842 63.0018 0
M  V30 3 C 23.7137 7.2697 61.6302 0
M  V30 4 C 25.7989 5.0743 63.8358 0
M  V30 5 C 23.7745 5.2525 62.4357 0
M  V30 6 N 23.0934 6.0925 61.646 0
M  V30 7 C 23.1256 8.3567 60.7733 0
M  V30 8 N 26.8766 5.6395 64.3429 0
M  V30 9 C 25.5435 3.7475 64.1839 0
M  V30 10 C 23.2241 3.8789 62.5995 0
M  V30 11 C 27.7087 4.9935 65.1614 0
M  V30 12 C 26.4499 3.0666 64.9998 0
M  V30 13 N 27.5136 3.6933 65.5199 0
M  V30 14 N 28.8138 5.6517 65.6013 0
M  V30 15 C 29.2947 6.9139 65.4111 0
M  V30 16 C 30.471 7.1914 66.0894 0
M  V30 17 C 28.7182 7.9315 64.6585 0
M  V30 18 C 31.0892 8.4299 66.0363 0
M  V30 19 C 29.3556 9.171 64.5756 0
M  V30 20 C 30.5381 9.4305 65.2637 0
M  V30 21 N 31.1639 10.6358 65.2266 0
M  V30 22 C 30.6216 11.7311 64.4395 0
M  V30 23 C 32.3957 10.8506 65.9725 0
M  V30 24 H 22.1006 8.5745 61.1082 0
M  V30 25 H 23.7402 9.2649 60.8607 0
M  V30 26 H 23.1063 8.0264 59.7246 0
M  V30 27 H 24.6531 3.2519 63.8262 0
M  V30 28 H 23.0201 3.6898 63.664 0
M  V30 29 H 22.2901 3.7876 62.0256 0
M  V30 30 H 23.9548 3.145 62.2303 0
M  V30 31 H 26.2908 2.0205 65.2149 0
M  V30 32 H 29.5727 5.0098 65.7086 0
M  V30 33 H 30.9235 6.4113 66.6831 0
M  V30 34 H 27.7843 7.7647 64.1423 0
M  V30 35 H 31.9951 8.6103 66.5956 0
M  V30 36 H 28.9211 9.9473 63.9633 0
M  V30 37 H 31.2707 12.6134 64.5418 0
M  V30 38 H 30.5721 11.4333 63.3821 0
M  V30 39 H 29.6112 11.9763 64.7993 0
M  V30 40 H 32.7449 11.882 65.8155 0
M  V30 41 H 32.2091 10.6864 67.0442 0
M  V30 42 H 33.164 10.1463 65.6219 0
M  V30 END ATOM
M  V30 BEGIN BOND
M  V30 1 1 1 2
M  V30 2 1 1 3
M  V30 3 1 2 4
M  V30 4 2 2 5
M  V30 5 2 3 6
M  V30 6 1 3 7
M  V30 7 2 4 8
M  V30 8 1 4 9
M  V30 9 1 5 10
M  V30 10 1 8 11
M  V30 11 2 9 12
M  V30 12 2 11 13
M  V30 13 1 11 14
M  V30 14 1 14 15
M  V30 15 2 15 16
M  V30 16 1 15 17
M  V30 17 1 16 18
M  V30 18 2 17 19
M  V30 19 2 18 20
M  V30 20 1 20 21
M  V30 21 1 21 22
M  V30 22 1 21 23
M  V30 23 1 5 6
M  V30 24 1 12 13
M  V30 25 1 19 20
M  V30 26 1 7 24
M  V30 27 1 7 25
M  V30 28 1 7 26
M  V30 29 1 9 27
M  V30 30 1 10 28
M  V30 31 1 10 29
M  V30 32 1 10 30
M  V30 33 1 12 31
M  V30 34 1 14 32
M  V30 35 1 16 33
M  V30 36 1 17 34
M  V30 37 1 18 35
M  V30 38 1 19 36
M  V30 39 1 22 37
M  V30 40 1 22 38
M  V30 41 1 22 39
M  V30 42 1 23 40
M  V30 43 1 23 41
M  V30 44 1 23 42
M  V30 END BOND
M  V30 END CTAB
M  END
>  <Molecule Name>
FGGSNQOBRJVAKL-UYBDAZJANA-N

>  <hs_clash>
0.0

>  <hs_total>
71.51128304079894

>  <Total Molweight>
325.439

>  <cLogP>
3.4539

>  <H-Acceptors>
5

>  <H-Donors>
1

>  <Polar Surface Area>
82.18

>  <Non-H Atoms>
23

>  <sp3-Atoms>
4

$$$$
ZMWYSLJBNJUCRK-IEJAXPBYNA-N
Actelion Java MolfileCreator 2.0

  0  0  0  0  0  0              0 V3000
M  V30 BEGIN CTAB
M  V30 COUNTS 37 39 0 0 0
M  V30 BEGIN ATOM
M  V30 1 F 33.3502 10.5106 66.3313 0
M  V30 2 C 32.4923 9.4864 66.1623 0
M  V30 3 C 32.0266 9.1978 64.8935 0
M  V30 4 C 32.1125 8.7462 67.263 0
M  V30 5 C 31.1555 8.1357 64.7225 0
M  V30 6 C 31.2513 7.6801 67.093 0
M  V30 7 C 30.7668 7.3615 65.8222 0
M  V30 8 N 29.8736 6.2854 65.6552 0
M  V30 9 C 28.7494 6.3533 64.9327 0
M  V30 10 O 28.3948 7.3886 64.3696 0
M  V30 11 C 27.9488 5.1114 64.8391 0
M  V30 12 N 28.269 4.051 65.5714 0
M  V30 13 C 26.8185 4.832 64.0536 0
M  V30 14 N 27.3572 3.0955 65.2531 0
M  V30 15 N 26.2254 5.7261 63.1802 0
M  V30 16 C 26.4759 3.5251 64.3551 0
M  V30 17 C 25.0994 5.527 62.4574 0
M  V30 18 O 24.4435 4.4861 62.5122 0
M  V30 19 C 24.6801 6.6664 61.5841 0
M  V30 20 C 23.344 7.0401 61.5066 0
M  V30 21 C 25.6256 7.3787 60.8525 0
M  V30 22 C 22.9613 8.1037 60.7094 0
M  V30 23 C 25.2381 8.4403 60.0552 0
M  V30 24 C 23.9068 8.8009 59.983 0
M  V30 25 H 32.338 9.7926 64.0476 0
M  V30 26 H 32.4842 8.9974 68.2456 0
M  V30 27 H 30.7749 7.9041 63.7388 0
M  V30 28 H 30.9511 7.0903 67.9464 0
M  V30 29 H 30.0926 5.4189 66.1036 0
M  V30 30 H 27.3496 2.1768 65.6479 0
M  V30 31 H 26.6761 6.6122 63.0717 0
M  V30 32 H 25.6519 2.9631 63.9409 0
M  V30 33 H 22.6004 6.4973 62.0716 0
M  V30 34 H 26.6677 7.1008 60.9075 0
M  V30 35 H 21.9213 8.3898 60.6551 0
M  V30 36 H 25.9768 8.988 59.4891 0
M  V30 37 H 23.605 9.6283 59.3578 0
M  V30 END ATOM
M  V30 BEGIN BOND
M  V30 1 1 1 2
M  V30 2 2 2 3
M  V30 3 1 2 4
M  V30 4 1 3 5
M  V30 5 2 4 6
M  V30 6 2 5 7
M  V30 7 1 7 8
M  V30 8 1 8 9
M  V30 9 2 9 10
M  V30 10 1 9 11
M  V30 11 2 11 12
M  V30 12 1 11 13
M  V30 13 1 12 14
M  V30 14 1 13 15
M  V30 15 2 13 16
M  V30 16 1 15 17
M  V30 17 2 17 18
M  V30 18 1 17 19
M  V30 19 2 19 20
M  V30 20 1 19 21
M  V30 21 1 20 22
M  V30 22 2 21 23
M  V30 23 2 22 24
M  V30 24 1 6 7
M  V30 25 1 14 16
M  V30 26 1 23 24
M  V30 27 1 3 25
M  V30 28 1 4 26
M  V30 29 1 5 27
M  V30 30 1 6 28
M  V30 31 1 8 29
M  V30 32 1 14 30
M  V30 33 1 15 31
M  V30 34 1 16 32
M  V30 35 1 20 33
M  V30 36 1 21 34
M  V30 37 1 22 35
M  V30 38 1 23 36
M  V30 39 1 24 37
M  V30 END BOND
M  V30 END CTAB
M  END
>  <Molecule Name>
ZMWYSLJBNJUCRK-IEJAXPBYNA-N

>  <hs_clash>
0.0

>  <hs_total>
71.12312104060206

>  <Total Molweight>
324.314

>  <cLogP>
2.003

>  <H-Acceptors>
6

>  <H-Donors>
3

>  <Polar Surface Area>
86.88

>  <Non-H Atoms>
24

>  <sp3-Atoms>
0

$$$$
VIZAOCOKGQUJRZ-UHFFFAOYNA-N
Actelion Java MolfileCreator 2.0

  0  0  0  0  0  0              0 V3000
M  V30 BEGIN CTAB
M  V30 COUNTS 22 23 0 0 0
M  V30 BEGIN ATOM
M  V30 1 Cl 28.4502 4.6587 65.4769 0
M  V30 2 C 27.1233 4.8859 64.3804 0
M  V30 3 C 26.9112 6.1384 63.8017 0
M  V30 4 C 26.267 3.8301 64.1332 0
M  V30 5 N 27.5939 7.3235 63.9239 0
M  V30 6 C 25.791 6.3618 62.9382 0
M  V30 7 C 25.1794 4.0097 63.2942 0
M  V30 8 C 26.9886 8.2798 63.1878 0
M  V30 9 C 24.9392 5.2444 62.7048 0
M  V30 10 C 25.8955 7.7224 62.5711 0
M  V30 11 Cl 23.5509 5.3873 61.672 0
M  V30 12 C 25.0922 8.5559 61.7356 0
M  V30 13 C 24.4192 9.254 61.0323 0
M  V30 14 C 23.5998 10.1092 60.1735 0
M  V30 15 O 22.2252 9.7538 60.2244 0
M  V30 16 H 26.4544 2.8651 64.5802 0
M  V30 17 H 28.4165 7.4586 64.4761 0
M  V30 18 H 24.5184 3.1813 63.0873 0
M  V30 19 H 27.3339 9.2997 63.1034 0
M  V30 20 H 23.9579 10.0441 59.1357 0
M  V30 21 H 23.7035 11.1577 60.4897 0
M  V30 22 H 21.9831 9.2248 59.4735 0
M  V30 END ATOM
M  V30 BEGIN BOND
M  V30 1 1 1 2
M  V30 2 2 2 3
M  V30 3 1 2 4
M  V30 4 1 3 5
M  V30 5 1 3 6
M  V30 6 2 4 7
M  V30 7 1 5 8
M  V30 8 2 6 9
M  V30 9 1 6 10
M  V30 10 1 9 11
M  V30 11 1 10 12
M  V30 12 3 12 13
M  V30 13 1 13 14
M  V30 14 1 14 15
M  V30 15 1 7 9
M  V30 16 2 8 10
M  V30 17 1 4 16
M  V30 18 1 5 17
M  V30 19 1 7 18
M  V30 20 1 8 19
M  V30 21 1 14 20
M  V30 22 1 14 21
M  V30 23 1 15 22
M  V30 END BOND
M  V30 END CTAB
M  END
>  <Molecule Name>
VIZAOCOKGQUJRZ-UHFFFAOYNA-N

>  <hs_clash>
0.0

>  <hs_total>
70.89650855824274

>  <Total Molweight>
240.089

>  <cLogP>
3.0056

>  <H-Acceptors>
2

>  <H-Donors>
2

>  <Polar Surface Area>
36.02

>  <Non-H Atoms>
15

>  <sp3-Atoms>
2

$$$$
SQUNOCMDMIQIQK-OVVPYVOINA-N
Actelion Java MolfileCreator 2.0

  0  0  0  0  0  0              0 V3000
M  V30 BEGIN CTAB
M  V30 COUNTS 52 54 0 0 0
M  V30 BEGIN ATOM
M  V30 1 O 25.1158 11.1191 62.3661 0
M  V30 2 C 24.3944 10.1694 61.571 0
M  V30 3 C 25.1466 8.8362 61.52 0 CFG=1
M  V30 4 N 26.4301 8.9046 62.199 0
M  V30 5 C 25.3133 8.3486 60.0804 0
M  V30 6 C 26.7732 7.8612 62.9702 0
M  V30 7 C 24.8463 6.914 60.0019 0
M  V30 8 N 27.991 7.8223 63.5574 0
M  V30 9 N 25.8889 6.8521 63.1494 0
M  V30 10 C 28.3431 6.7694 64.3327 0
M  V30 11 C 26.2952 5.8335 63.9265 0
M  V30 12 N 27.4713 5.7739 64.5074 0
M  V30 13 N 29.5532 6.7236 64.9135 0
M  V30 14 C 25.6652 4.5754 64.3628 0
M  V30 15 N 27.6817 4.6172 65.2721 0
M  V30 16 C 30.5801 7.68 64.5461 0
M  V30 17 C 26.5465 3.8661 65.1717 0
M  V30 18 C 24.3078 4.0748 63.9978 0
M  V30 19 C 30.6688 8.7198 65.6298 0
M  V30 20 C 24.2731 3.6262 62.5354 0
M  V30 21 C 23.194 5.0741 64.2977 0
M  V30 22 C 30.6786 10.0686 65.289 0
M  V30 23 C 30.7248 8.3266 66.9714 0
M  V30 24 C 30.7536 11.0285 66.3004 0
M  V30 25 C 30.7955 9.2886 67.9774 0
M  V30 26 C 30.813 10.6397 67.6388 0
M  V30 27 H 24.7407 11.1519 63.2384 0
M  V30 28 H 23.3998 10.0081 62.0128 0
M  V30 29 H 24.2826 10.5624 60.5499 0
M  V30 30 H 24.5244 8.0946 62.0426 0
M  V30 31 H 27.1253 9.5564 61.8963 0
M  V30 32 H 24.7094 8.9727 59.4051 0
M  V30 33 H 26.3717 8.4106 59.7884 0
M  V30 34 H 24.9595 6.547 58.9713 0
M  V30 35 H 25.4505 6.2942 60.6804 0
M  V30 36 H 23.7881 6.8563 60.2973 0
M  V30 37 H 29.8235 5.8895 65.3942 0
M  V30 38 H 31.5472 7.1662 64.4443 0
M  V30 39 H 30.3172 8.1596 63.5918 0
M  V30 40 H 26.3673 2.9058 65.6321 0
M  V30 41 H 24.1116 3.1828 64.6109 0
M  V30 42 H 23.2655 3.2615 62.287 0
M  V30 43 H 24.5255 4.4768 61.8851 0
M  V30 44 H 25.0034 2.8183 62.3826 0
M  V30 45 H 22.225 4.6426 64.0057 0
M  V30 46 H 23.1844 5.3009 65.374 0
M  V30 47 H 23.3689 5.9996 63.7295 0
M  V30 48 H 30.6289 10.3702 64.2532 0
M  V30 49 H 30.7134 7.2776 67.2275 0
M  V30 50 H 30.7652 12.0778 66.0455 0
M  V30 51 H 30.8362 8.9884 69.0142 0
M  V30 52 H 30.8732 11.3885 68.4147 0
M  V30 END ATOM
M  V30 BEGIN BOND
M  V30 1 1 1 2
M  V30 2 1 2 3
M  V30 3 1 3 4
M  V30 4 1 3 5
M  V30 5 1 4 6
M  V30 6 1 5 7
M  V30 7 1 6 8
M  V30 8 2 6 9
M  V30 9 2 8 10
M  V30 10 1 9 11
M  V30 11 1 10 12
M  V30 12 1 10 13
M  V30 13 2 11 14
M  V30 14 1 12 15
M  V30 15 1 13 16
M  V30 16 1 14 17
M  V30 17 1 14 18
M  V30 18 1 16 19
M  V30 19 1 18 20
M  V30 20 1 18 21
M  V30 21 2 19 22
M  V30 22 1 19 23
M  V30 23 1 22 24
M  V30 24 2 23 25
M  V30 25 2 24 26
M  V30 26 1 11 12
M  V30 27 2 15 17
M  V30 28 1 25 26
M  V30 29 1 1 27
M  V30 30 1 2 28
M  V30 31 1 2 29
M  V30 32 1 3 30
M  V30 33 1 4 31
M  V30 34 1 5 32
M  V30 35 1 5 33
M  V30 36 1 7 34
M  V30 37 1 7 35
M  V30 38 1 7 36
M  V30 39 1 13 37
M  V30 40 1 16 38
M  V30 41 1 16 39
M  V30 42 1 17 40
M  V30 43 1 18 41
M  V30 44 1 20 42
M  V30 45 1 20 43
M  V30 46 1 20 44
M  V30 47 1 21 45
M  V30 48 1 21 46
M  V30 49 1 21 47
M  V30 50 1 22 48
M  V30 51 1 23 49
M  V30 52 1 24 50
M  V30 53 1 25 51
M  V30 54 1 26 52
M  V30 END BOND
M  V30 BEGIN COLLECTION
M  V30 MDLV30/STERAC1 ATOMS=(1 3)
M  V30 END COLLECTION
M  V30 END CTAB
M  END
>  <Molecule Name>
SQUNOCMDMIQIQK-OVVPYVOINA-N

>  <hs_clash>
0.0

>  <hs_total>
70.28231879276127

>  <Total Molweight>
354.456

>  <cLogP>
2.37

>  <H-Acceptors>
7

>  <H-Donors>
3

>  <Polar Surface Area>
87.37

>  <Non-H Atoms>
26

>  <sp3-Atoms>
9

$$$$
GVUPVQFCLXGOQY-NNAGBOQDNA-M
Actelion Java MolfileCreator 2.0

  0  0  0  0  0  0              0 V3000
M  V30 BEGIN CTAB
M  V30 COUNTS 32 34 0 0 0
M  V30 BEGIN ATOM
M  V30 1 S 33.2 10.6833 64.6357 0
M  V30 2 O 34.3529 10.1597 63.852 0
M  V30 3 O 33.6465 11.0134 66.0283 0
M  V30 4 N 32.6225 12.0386 63.9135 0
M  V30 5 C 31.9328 9.4404 64.6944 0
M  V30 6 C 30.9192 9.4452 63.7494 0
M  V30 7 C 31.9821 8.4222 65.6649 0
M  V30 8 C 29.9419 8.4583 63.7739 0
M  V30 9 C 30.9938 7.4274 65.6885 0
M  V30 10 C 29.9704 7.4552 64.748 0
M  V30 11 C 28.924 6.4384 64.7486 0
M  V30 12 O 27.7673 6.5104 64.0419 0
M  V30 13 C 28.9369 5.2493 65.4007 0
M  V30 14 C 27.0833 5.4228 64.228 0
M  V30 15 C 27.7867 4.6136 65.0856 0
M  V30 16 C 25.7931 5.127 63.6301 0
M  V30 17 C 25.3619 5.8176 62.4724 0
M  V30 18 S 26.3334 6.8253 61.5185 0
M  V30 19 C 24.076 5.7397 61.9568 0
M  V30 20 C 25.0867 7.1447 60.4719 0
M  V30 21 O 23.1664 5.079 62.4619 0
M  V30 22 N 23.9405 6.4943 60.823 0 CHG=-1
M  V30 23 O 25.1878 7.8797 59.4871 0
M  V30 24 H 32.7798 11.9844 62.9277 0
M  V30 25 H 33.0936 12.84 64.2824 0
M  V30 26 H 30.8889 10.2162 62.9938 0
M  V30 27 H 32.7809 8.4069 66.3914 0
M  V30 28 H 29.1541 8.4658 63.0353 0
M  V30 29 H 31.0275 6.6452 66.4326 0
M  V30 30 H 29.7181 4.8806 66.049 0
M  V30 31 H 27.4766 3.6432 65.4441 0
M  V30 32 H 25.1575 4.3743 64.0725 0
M  V30 END ATOM
M  V30 BEGIN BOND
M  V30 1 2 1 2
M  V30 2 2 1 3
M  V30 3 1 1 4
M  V30 4 1 1 5
M  V30 5 2 5 6
M  V30 6 1 5 7
M  V30 7 1 6 8
M  V30 8 2 7 9
M  V30 9 2 8 10
M  V30 10 1 10 11
M  V30 11 1 11 12
M  V30 12 2 11 13
M  V30 13 1 12 14
M  V30 14 1 13 15
M  V30 15 1 14 16
M  V30 16 2 16 17
M  V30 17 1 17 18
M  V30 18 1 17 19
M  V30 19 1 18 20
M  V30 20 2 19 21
M  V30 21 1 19 22
M  V30 22 2 20 23
M  V30 23 1 9 10
M  V30 24 2 14 15
M  V30 25 1 20 22
M  V30 26 1 4 24
M  V30 27 1 4 25
M  V30 28 1 6 26
M  V30 29 1 7 27
M  V30 30 1 8 28
M  V30 31 1 9 29
M  V30 32 1 13 30
M  V30 33 1 15 31
M  V30 34 1 16 32
M  V30 END BOND
M  V30 END CTAB
M  END
>  <Molecule Name>
GVUPVQFCLXGOQY-NNAGBOQDNA-M

>  <hs_clash>
3.0

>  <hs_total>
70.0635664549551

>  <Total Molweight>
349.366

>  <cLogP>
0.9312

>  <H-Acceptors>
7

>  <H-Donors>
1

>  <Polar Surface Area>
141.12

>  <Non-H Atoms>
23

>  <sp3-Atoms>
2

$$$$
WPAHESSOUBKEIY-RRKJSEITNA-N
Actelion Java MolfileCreator 2.0

  0  0  0  0  0  0              0 V3000
M  V30 BEGIN CTAB
M  V30 COUNTS 37 38 0 0 0
M  V30 BEGIN ATOM
M  V30 1 O 29.4901 7.4571 64.7301 0
M  V30 2 C 29.6833 6.217 65.2086 0
M  V30 3 N 30.7683 5.9712 65.9965 0
M  V30 4 C 28.7272 5.1057 64.8918 0
M  V30 5 N 31.4155 7.0566 66.6084 0
M  V30 6 N 28.8842 3.8384 65.3487 0
M  V30 7 C 27.5618 5.1417 64.1108 0
M  V30 8 N 27.8799 3.0903 64.888 0
M  V30 9 C 27.0694 3.8573 64.1411 0
M  V30 10 C 26.8853 6.268 63.3539 0
M  V30 11 C 25.8176 3.406 63.4337 0
M  V30 12 C 25.9844 5.7277 62.1572 0 CFG=2
M  V30 13 C 25.056 4.5552 62.6973 0
M  V30 14 C 25.2256 6.9106 61.3755 0
M  V30 15 C 25.715 6.9012 59.9169 0
M  V30 16 C 25.4996 8.3398 61.9334 0
M  V30 17 C 23.6899 6.695 61.3131 0
M  V30 18 H 31.0964 5.037 66.1359 0
M  V30 19 H 32.1867 6.723 67.1502 0
M  V30 20 H 31.7487 7.685 65.9058 0
M  V30 21 H 27.7516 2.1152 65.0697 0
M  V30 22 H 27.6581 6.9344 62.9436 0
M  V30 23 H 26.2478 6.8316 64.0512 0
M  V30 24 H 26.0952 2.6434 62.6914 0
M  V30 25 H 25.1396 2.9632 64.1782 0
M  V30 26 H 26.673 5.2709 61.4314 0
M  V30 27 H 24.5222 4.1183 61.8405 0
M  V30 28 H 24.3288 4.9894 63.3995 0
M  V30 29 H 25.2115 7.7024 59.3557 0
M  V30 30 H 26.8023 7.0653 59.8942 0
M  V30 31 H 25.4807 5.9295 59.4582 0
M  V30 32 H 24.9417 9.0791 61.3397 0
M  V30 33 H 25.1741 8.3924 62.983 0
M  V30 34 H 26.5759 8.5572 61.872 0
M  V30 35 H 23.2236 7.5301 60.7698 0
M  V30 36 H 23.4731 5.7515 60.7909 0
M  V30 37 H 23.2841 6.6503 62.3346 0
M  V30 END ATOM
M  V30 BEGIN BOND
M  V30 1 2 1 2
M  V30 2 1 2 3
M  V30 3 1 2 4
M  V30 4 1 3 5
M  V30 5 2 4 6
M  V30 6 1 4 7
M  V30 7 1 6 8
M  V30 8 2 7 9
M  V30 9 1 7 10
M  V30 10 1 9 11
M  V30 11 1 10 12
M  V30 12 1 11 13
M  V30 13 1 12 14
M  V30 14 1 14 15
M  V30 15 1 14 16
M  V30 16 1 14 17
M  V30 17 1 8 9
M  V30 18 1 12 13
M  V30 19 1 3 18
M  V30 20 1 5 19
M  V30 21 1 5 20
M  V30 22 1 8 21
M  V30 23 1 10 22
M  V30 24 1 10 23
M  V30 25 1 11 24
M  V30 26 1 11 25
M  V30 27 1 12 26
M  V30 28 1 13 27
M  V30 29 1 13 28
M  V30 30 1 15 29
M  V30 31 1 15 30
M  V30 32 1 15 31
M  V30 33 1 16 32
M  V30 34 1 16 33
M  V30 35 1 16 34
M  V30 36 1 17 35
M  V30 37 1 17 36
M  V30 38 1 17 37
M  V30 END BOND
M  V30 BEGIN COLLECTION
M  V30 MDLV30/STERAC1 ATOMS=(1 12)
M  V30 END COLLECTION
M  V30 END CTAB
M  END
>  <Molecule Name>
WPAHESSOUBKEIY-RRKJSEITNA-N

>  <hs_clash>
0.0

>  <hs_total>
69.5255004374461

>  <Total Molweight>
236.318

>  <cLogP>
0.649

>  <H-Acceptors>
5

>  <H-Donors>
3

>  <Polar Surface Area>
83.8

>  <Non-H Atoms>
17

>  <sp3-Atoms>
9

$$$$
RSNSGNZRUMHXAY-RWJRRMEYNA-N
Actelion Java MolfileCreator 2.0

  0  0  0  0  0  0              0 V3000
M  V30 BEGIN CTAB
M  V30 COUNTS 27 28 0 0 0
M  V30 BEGIN ATOM
M  V30 1 Cl 25.2853 4.0345 63.2 0
M  V30 2 C 26.6103 4.663 64.1264 0
M  V30 3 N 26.8709 5.9624 63.9736 0
M  V30 4 C 27.3299 3.8204 64.9466 0
M  V30 5 C 27.9043 6.4177 64.6998 0
M  V30 6 N 28.3552 4.2845 65.6645 0
M  V30 7 N 28.1723 7.7832 64.5515 0
M  V30 8 C 28.633 5.5843 65.5376 0
M  V30 9 C 29.3817 8.4951 64.5707 0
M  V30 10 C 29.3849 9.8836 64.4329 0
M  V30 11 C 30.5898 7.8239 64.7395 0
M  V30 12 C 30.5703 10.5859 64.4615 0
M  V30 13 C 31.7753 8.5261 64.7649 0
M  V30 14 C 31.7673 9.9035 64.6186 0
M  V30 15 S 33.2901 10.7975 64.6435 0
M  V30 16 O 33.0664 12.0499 63.9691 0
M  V30 17 O 34.3099 9.9061 64.1443 0
M  V30 18 N 33.6412 11.1199 66.1726 0
M  V30 19 H 27.0615 2.7761 65.0091 0
M  V30 20 H 27.5143 8.212 63.9324 0
M  V30 21 H 29.4515 6.0014 66.1055 0
M  V30 22 H 28.4517 10.412 64.3033 0
M  V30 23 H 30.5979 6.7497 64.8509 0
M  V30 24 H 30.5669 11.6614 64.362 0
M  V30 25 H 32.7101 8.0026 64.8991 0
M  V30 26 H 33.3321 10.3662 66.7524 0
M  V30 27 H 33.181 11.9636 66.4502 0
M  V30 END ATOM
M  V30 BEGIN BOND
M  V30 1 1 1 2
M  V30 2 2 2 3
M  V30 3 1 2 4
M  V30 4 1 3 5
M  V30 5 2 4 6
M  V30 6 1 5 7
M  V30 7 2 5 8
M  V30 8 1 7 9
M  V30 9 2 9 10
M  V30 10 1 9 11
M  V30 11 1 10 12
M  V30 12 2 11 13
M  V30 13 2 12 14
M  V30 14 1 14 15
M  V30 15 2 15 16
M  V30 16 2 15 17
M  V30 17 1 15 18
M  V30 18 1 6 8
M  V30 19 1 13 14
M  V30 20 1 4 19
M  V30 21 1 7 20
M  V30 22 1 8 21
M  V30 23 1 10 22
M  V30 24 1 11 23
M  V30 25 1 12 24
M  V30 26 1 13 25
M  V30 27 1 18 26
M  V30 28 1 18 27
M  V30 END BOND
M  V30 END CTAB
M  END
>  <Molecule Name>
RSNSGNZRUMHXAY-RWJRRMEYNA-N

>  <hs_clash>
3.0

>  <hs_total>
67.82400405090678

>  <Total Molweight>
284.726

>  <cLogP>
1.007

>  <H-Acceptors>
6

>  <H-Donors>
2

>  <Polar Surface Area>
106.35

>  <Non-H Atoms>
18

>  <sp3-Atoms>
1

$$$$
SSEDQERECATUBR-DXAUXPAJNA-N
Actelion Java MolfileCreator 2.0

  0  0  0  0  0  0              0 V3000
M  V30 BEGIN CTAB
M  V30 COUNTS 56 59 0 0 0
M  V30 BEGIN ATOM
M  V30 1 S 30.083 10.57 63.3354 0
M  V30 2 O 31.3593 11.1001 62.9381 0
M  V30 3 O 29.5885 9.7102 62.2942 0
M  V30 4 N 28.9691 11.75 63.575 0
M  V30 5 C 30.2459 9.6776 64.9081 0
M  V30 6 C 29.2728 12.8139 62.7974 0
M  V30 7 C 27.7167 11.4207 63.9735 0
M  V30 8 C 31.0218 10.225 65.9611 0
M  V30 9 C 29.5856 8.4254 65.0899 0
M  V30 10 C 28.4305 13.9943 63.1584 0
M  V30 11 C 26.8505 12.6125 64.2074 0
M  V30 12 C 31.1481 9.5416 67.1606 0
M  V30 13 C 31.7297 11.5334 65.8334 0
M  V30 14 C 29.7222 7.7379 66.3053 0
M  V30 15 O 27.0213 13.6366 63.1853 0
M  V30 16 C 30.4974 8.2963 67.3333 0
M  V30 17 N 29.0857 6.4479 66.5896 0
M  V30 18 C 28.0497 5.822 65.8068 0
M  V30 19 N 27.0911 6.5631 65.2023 0
M  V30 20 N 28.0514 4.4897 65.7221 0
M  V30 21 C 26.1112 5.98 64.4651 0
M  V30 22 C 27.1054 3.8403 65.0187 0
M  V30 23 C 26.0893 4.5862 64.3548 0
M  V30 24 C 25.0699 6.8995 63.8028 0
M  V30 25 C 25.0515 3.8566 63.5637 0
M  V30 26 S 25.4629 8.3247 63.1037 0
M  V30 27 C 23.634 6.6976 63.7215 0
M  V30 28 N 24.2586 3.2694 62.9608 0
M  V30 29 C 23.9574 8.8261 62.6284 0
M  V30 30 N 22.9884 7.8646 63.0061 0
M  V30 31 C 22.831 5.5096 64.257 0
M  V30 32 N 23.6303 10.0675 61.9204 0
M  V30 33 C 22.2593 10.4448 61.7477 0
M  V30 34 H 30.3327 13.0718 62.9373 0
M  V30 35 H 29.0945 12.553 61.744 0
M  V30 36 H 27.7853 10.8475 64.91 0
M  V30 37 H 27.253 10.7972 63.1952 0
M  V30 38 H 28.9834 8.0091 64.2959 0
M  V30 39 H 28.7282 14.3592 64.1527 0
M  V30 40 H 28.5861 14.7893 62.4146 0
M  V30 41 H 27.1037 13.046 65.1864 0
M  V30 42 H 25.7991 12.2893 64.2107 0
M  V30 43 H 31.7412 9.9583 67.9615 0
M  V30 44 H 30.997 12.3296 65.6338 0
M  V30 45 H 32.2641 11.7539 66.7692 0
M  V30 46 H 32.4493 11.4811 65.0036 0
M  V30 47 H 30.599 7.7681 68.2698 0
M  V30 48 H 29.7049 5.7907 67.0187 0
M  V30 49 H 27.1162 2.7623 64.9584 0
M  V30 50 H 22.3051 5.0175 63.4259 0
M  V30 51 H 23.5134 4.7919 64.7353 0
M  V30 52 H 22.0972 5.8657 64.9953 0
M  V30 53 H 24.277 10.8208 62.0406 0
M  V30 54 H 22.2064 11.3963 61.1983 0
M  V30 55 H 21.7331 9.6638 61.1794 0
M  V30 56 H 21.7846 10.5638 62.7331 0
M  V30 END ATOM
M  V30 BEGIN BOND
M  V30 1 2 1 2
M  V30 2 2 1 3
M  V30 3 1 1 4
M  V30 4 1 1 5
M  V30 5 1 4 6
M  V30 6 1 4 7
M  V30 7 2 5 8
M  V30 8 1 5 9
M  V30 9 1 6 10
M  V30 10 1 7 11
M  V30 11 1 8 12
M  V30 12 1 8 13
M  V30 13 2 9 14
M  V30 14 1 10 15
M  V30 15 2 12 16
M  V30 16 1 14 17
M  V30 17 1 17 18
M  V30 18 2 18 19
M  V30 19 1 18 20
M  V30 20 1 19 21
M  V30 21 2 20 22
M  V30 22 2 21 23
M  V30 23 1 21 24
M  V30 24 1 23 25
M  V30 25 1 24 26
M  V30 26 2 24 27
M  V30 27 3 25 28
M  V30 28 1 26 29
M  V30 29 1 27 30
M  V30 30 1 27 31
M  V30 31 1 29 32
M  V30 32 1 32 33
M  V30 33 1 11 15
M  V30 34 1 14 16
M  V30 35 1 22 23
M  V30 36 2 29 30
M  V30 37 1 6 34
M  V30 38 1 6 35
M  V30 39 1 7 36
M  V30 40 1 7 37
M  V30 41 1 9 38
M  V30 42 1 10 39
M  V30 43 1 10 40
M  V30 44 1 11 41
M  V30 45 1 11 42
M  V30 46 1 12 43
M  V30 47 1 13 44
M  V30 48 1 13 45
M  V30 49 1 13 46
M  V30 50 1 16 47
M  V30 51 1 17 48
M  V30 52 1 22 49
M  V30 53 1 31 50
M  V30 54 1 31 51
M  V30 55 1 31 52
M  V30 56 1 32 53
M  V30 57 1 33 54
M  V30 58 1 33 55
M  V30 59 1 33 56
M  V30 END BOND
M  V30 END CTAB
M  END
>  <Molecule Name>
SSEDQERECATUBR-DXAUXPAJNA-N

>  <hs_clash>
14.0

>  <hs_total>
67.54449192616669

>  <Total Molweight>
485.592

>  <cLogP>
2.8781

>  <H-Acceptors>
10

>  <H-Donors>
2

>  <Polar Surface Area>
169.75

>  <Non-H Atoms>
33

>  <sp3-Atoms>
9

$$$$
ATWKNNOBDMPYCY-QLBRQLNVNA-M
Actelion Java MolfileCreator 2.0

  0  0  0  0  0  0              0 V3000
M  V30 BEGIN CTAB
M  V30 COUNTS 22 23 0 0 0
M  V30 BEGIN ATOM
M  V30 1 O 28.6752 4.0973 65.4249 0 CHG=-1
M  V30 2 C 27.6459 4.3624 64.5674 0
M  V30 3 C 27.5387 5.6471 63.9058 0
M  V30 4 C 26.6759 3.3554 64.3211 0
M  V30 5 C 28.4759 6.6379 64.1152 0
M  V30 6 C 26.4395 5.8732 63.006 0
M  V30 7 C 25.597 3.5953 63.4287 0
M  V30 8 N 29.4791 6.3813 64.995 0
M  V30 9 N 28.3376 7.7943 63.4109 0
M  V30 10 C 25.477 4.8515 62.772 0
M  V30 11 C 30.3699 7.3784 65.1366 0
M  V30 12 C 29.3049 8.7123 63.6526 0
M  V30 13 C 24.4751 5.0585 61.9395 0
M  V30 14 N 30.3457 8.5662 64.4984 0
M  V30 15 N 31.3254 7.18 65.9465 0
M  V30 16 N 23.5994 5.2264 61.1958 0
M  V30 17 H 26.7589 2.3991 64.8161 0
M  V30 18 H 26.3435 6.8253 62.5049 0
M  V30 19 H 24.8651 2.8218 63.2486 0
M  V30 20 H 29.2357 9.6486 63.1185 0
M  V30 21 H 31.9196 7.9842 65.9653 0
M  V30 22 H 31.2342 6.2715 66.3543 0
M  V30 END ATOM
M  V30 BEGIN BOND
M  V30 1 1 1 2
M  V30 2 2 2 3
M  V30 3 1 2 4
M  V30 4 1 3 5
M  V30 5 1 3 6
M  V30 6 2 4 7
M  V30 7 2 5 8
M  V30 8 1 5 9
M  V30 9 2 6 10
M  V30 10 1 8 11
M  V30 11 2 9 12
M  V30 12 1 10 13
M  V30 13 2 11 14
M  V30 14 1 11 15
M  V30 15 3 13 16
M  V30 16 1 7 10
M  V30 17 1 12 14
M  V30 18 1 4 17
M  V30 19 1 6 18
M  V30 20 1 7 19
M  V30 21 1 12 20
M  V30 22 1 15 21
M  V30 23 1 15 22
M  V30 END BOND
M  V30 END CTAB
M  END
>  <Molecule Name>
ATWKNNOBDMPYCY-QLBRQLNVNA-M

>  <hs_clash>
0.0

>  <hs_total>
67.53472850303864

>  <Total Molweight>
212.192

>  <cLogP>
-0.7802

>  <H-Acceptors>
6

>  <H-Donors>
1

>  <Polar Surface Area>
111.54

>  <Non-H Atoms>
16

>  <sp3-Atoms>
1

$$$$
WCNPGRRMPFCHEO-QWOVJGMINA-N
Actelion Java MolfileCreator 2.0

  0  0  0  0  0  0              0 V3000
M  V30 BEGIN CTAB
M  V30 COUNTS 38 41 0 0 0
M  V30 BEGIN ATOM
M  V30 1 F 28.3066 4.1842 65.7192 0
M  V30 2 C 27.4975 4.5957 64.7659 0
M  V30 3 C 27.5973 5.8999 64.1686 0
M  V30 4 C 26.4969 3.7061 64.3704 0
M  V30 5 C 28.6864 6.8891 64.4531 0
M  V30 6 C 26.6738 6.2179 63.1592 0
M  V30 7 C 25.5913 4.0482 63.3585 0
M  V30 8 N 28.8664 7.8754 63.505 0
M  V30 9 C 29.5383 6.8282 65.5509 0
M  V30 10 C 25.6671 5.3153 62.7715 0
M  V30 11 C 29.8476 8.7501 63.6083 0
M  V30 12 N 30.5806 7.688 65.6494 0
M  V30 13 N 30.0763 9.7495 62.7056 0
M  V30 14 C 30.7552 8.6686 64.7411 0
M  V30 15 C 31.5492 7.8378 66.6199 0
M  V30 16 C 29.246 9.7182 61.497 0
M  V30 17 N 31.789 9.4671 65.0768 0
M  V30 18 C 32.2777 8.9384 66.2247 0
M  V30 19 C 28.0396 10.5796 61.7042 0
M  V30 20 C 26.7493 10.029 61.7467 0
M  V30 21 C 28.1586 11.9714 61.8722 0
M  V30 22 N 25.6271 10.7335 61.9412 0
M  V30 23 C 26.9953 12.7318 62.0754 0
M  V30 24 C 25.7628 12.0693 62.1176 0
M  V30 25 H 26.4201 2.7423 64.8511 0
M  V30 26 H 26.738 7.1783 62.6693 0
M  V30 27 H 24.8421 3.3409 63.0347 0
M  V30 28 H 29.3687 6.0951 66.3254 0
M  V30 29 H 24.9495 5.602 62.017 0
M  V30 30 H 31.0157 10.0783 62.6107 0
M  V30 31 H 31.7029 7.2268 67.4969 0
M  V30 32 H 29.8258 10.0975 60.6428 0
M  V30 33 H 28.929 8.6846 61.2954 0
M  V30 34 H 33.1292 9.3298 66.7614 0
M  V30 35 H 26.6546 8.9618 61.6128 0
M  V30 36 H 29.1276 12.4471 61.8455 0
M  V30 37 H 27.0502 13.8036 62.1965 0
M  V30 38 H 24.8735 12.6544 62.3004 0
M  V30 END ATOM
M  V30 BEGIN BOND
M  V30 1 1 1 2
M  V30 2 2 2 3
M  V30 3 1 2 4
M  V30 4 1 3 5
M  V30 5 1 3 6
M  V30 6 2 4 7
M  V30 7 1 5 8
M  V30 8 2 5 9
M  V30 9 2 6 10
M  V30 10 2 8 11
M  V30 11 1 9 12
M  V30 12 1 11 13
M  V30 13 1 11 14
M  V30 14 1 12 15
M  V30 15 1 13 16
M  V30 16 2 14 17
M  V30 17 2 15 18
M  V30 18 1 16 19
M  V30 19 2 19 20
M  V30 20 1 19 21
M  V30 21 1 20 22
M  V30 22 2 21 23
M  V30 23 2 22 24
M  V30 24 1 7 10
M  V30 25 1 12 14
M  V30 26 1 17 18
M  V30 27 1 23 24
M  V30 28 1 4 25
M  V30 29 1 6 26
M  V30 30 1 7 27
M  V30 31 1 9 28
M  V30 32 1 10 29
M  V30 33 1 13 30
M  V30 34 1 15 31
M  V30 35 1 16 32
M  V30 36 1 16 33
M  V30 37 1 18 34
M  V30 38 1 20 35
M  V30 39 1 21 36
M  V30 40 1 23 37
M  V30 41 1 24 38
M  V30 END BOND
M  V30 END CTAB
M  END
>  <Molecule Name>
WCNPGRRMPFCHEO-QWOVJGMINA-N

>  <hs_clash>
0.0

>  <hs_total>
67.45314254966752

>  <Total Molweight>
319.342

>  <cLogP>
1.8678

>  <H-Acceptors>
5

>  <H-Donors>
1

>  <Polar Surface Area>
55.11

>  <Non-H Atoms>
24

>  <sp3-Atoms>
1

$$$$
XTIMXWZYVZMPGC-QXYMKYIANA-N
Actelion Java MolfileCreator 2.0

  0  0  0  0  0  0              0 V3000
M  V30 BEGIN CTAB
M  V30 COUNTS 41 43 0 0 0
M  V30 BEGIN ATOM
M  V30 1 S 33.3289 10.6318 64.9548 0
M  V30 2 O 34.3822 10.1962 64.0329 0
M  V30 3 O 33.7171 11.1214 66.3057 0
M  V30 4 N 32.3925 11.8372 64.1988 0
M  V30 5 C 32.2827 9.2445 65.2122 0
M  V30 6 C 32.4481 8.4418 66.3931 0
M  V30 7 C 31.3102 8.9277 64.2261 0
M  V30 8 C 31.6388 7.2961 66.5798 0
M  V30 9 C 30.5069 7.7886 64.4103 0
M  V30 10 C 30.6629 6.9598 65.5842 0
M  V30 11 N 29.9582 5.8459 65.7036 0
M  V30 12 C 28.7827 5.357 65.1801 0
M  V30 13 S 27.6992 6.2611 64.0966 0
M  V30 14 N 28.3921 4.1203 65.4296 0
M  V30 15 C 26.7063 4.8045 63.9972 0
M  V30 16 C 27.2228 3.7901 64.7643 0
M  V30 17 C 25.4928 4.8063 63.1434 0
M  V30 18 N 26.6826 2.5225 64.8934 0
M  V30 19 O 24.8584 3.7546 63.0279 0
M  V30 20 N 25.1524 5.9664 62.5301 0
M  V30 21 C 24.0416 6.2133 61.6757 0
M  V30 22 C 24.1439 7.293 60.7439 0
M  V30 23 C 22.8328 5.4288 61.7157 0
M  V30 24 C 23.0443 7.5801 59.8683 0
M  V30 25 C 21.7484 5.7129 60.847 0
M  V30 26 F 23.1354 8.5893 58.9847 0
M  V30 27 C 21.8477 6.7897 59.9213 0
M  V30 28 F 20.6251 4.952 60.9063 0
M  V30 29 H 32.979 12.3992 63.6159 0
M  V30 30 H 31.6823 11.4075 63.6413 0
M  V30 31 H 33.1859 8.7119 67.1343 0
M  V30 32 H 31.1902 9.5501 63.3517 0
M  V30 33 H 31.7545 6.6824 67.4609 0
M  V30 34 H 29.7662 7.5306 63.668 0
M  V30 35 H 30.5036 5.1147 66.1131 0
M  V30 36 H 27.2588 1.9744 65.4998 0
M  V30 37 H 25.8458 2.4593 64.3496 0
M  V30 38 H 25.7563 6.7453 62.6993 0
M  V30 39 H 25.0432 7.8889 60.6998 0
M  V30 40 H 22.7516 4.6123 62.4181 0
M  V30 41 H 21.0233 7.0116 59.2597 0
M  V30 END ATOM
M  V30 BEGIN BOND
M  V30 1 2 1 2
M  V30 2 2 1 3
M  V30 3 1 1 4
M  V30 4 1 1 5
M  V30 5 2 5 6
M  V30 6 1 5 7
M  V30 7 1 6 8
M  V30 8 2 7 9
M  V30 9 2 8 10
M  V30 10 1 10 11
M  V30 11 1 11 12
M  V30 12 1 12 13
M  V30 13 2 12 14
M  V30 14 1 13 15
M  V30 15 1 14 16
M  V30 16 1 15 17
M  V30 17 1 16 18
M  V30 18 2 17 19
M  V30 19 1 17 20
M  V30 20 1 20 21
M  V30 21 2 21 22
M  V30 22 1 21 23
M  V30 23 1 22 24
M  V30 24 2 23 25
M  V30 25 1 24 26
M  V30 26 2 24 27
M  V30 27 1 25 28
M  V30 28 1 9 10
M  V30 29 2 15 16
M  V30 30 1 25 27
M  V30 31 1 4 29
M  V30 32 1 4 30
M  V30 33 1 6 31
M  V30 34 1 7 32
M  V30 35 1 8 33
M  V30 36 1 9 34
M  V30 37 1 11 35
M  V30 38 1 18 36
M  V30 39 1 18 37
M  V30 40 1 20 38
M  V30 41 1 22 39
M  V30 42 1 23 40
M  V30 43 1 27 41
M  V30 END BOND
M  V30 END CTAB
M  END
>  <Molecule Name>
XTIMXWZYVZMPGC-QXYMKYIANA-N

>  <hs_clash>
9.0

>  <hs_total>
67.41291818013023

>  <Total Molweight>
425.439

>  <cLogP>
2.6847

>  <H-Acceptors>
8

>  <H-Donors>
4

>  <Polar Surface Area>
176.82

>  <Non-H Atoms>
28

>  <sp3-Atoms>
1

$$$$
DGWXOLHKVGDQLN-KGJHZMDYNA-N
Actelion Java MolfileCreator 2.0

  0  0  0  0  0  0              0 V3000
M  V30 BEGIN CTAB
M  V30 COUNTS 35 36 0 0 0
M  V30 BEGIN ATOM
M  V30 1 O 25.8515 4.2322 62.3463 0
M  V30 2 N 26.4714 5.2661 62.6451 0
M  V30 3 C 27.4242 5.1937 63.7363 0
M  V30 4 C 28.1251 6.4741 64.0584 0
M  V30 5 C 27.7795 4.1232 64.4481 0
M  V30 6 O 27.8537 7.6474 63.3517 0
M  V30 7 N 29.0636 6.5405 65.0399 0
M  V30 8 N 28.7929 4.3237 65.4938 0
M  V30 9 N 27.2555 2.9496 64.2471 0
M  V30 10 C 28.7982 8.7289 63.5774 0
M  V30 11 C 29.3995 5.3978 65.7611 0
M  V30 12 C 28.5127 9.7518 62.4755 0
M  V30 13 N 30.3223 5.5288 66.6803 0
M  V30 14 C 29.2359 11.1071 62.7122 0
M  V30 15 C 27.0044 9.9479 62.2204 0
M  V30 16 C 29.0241 12.0151 61.456 0
M  V30 17 C 26.8112 10.9135 61.0137 0
M  V30 18 C 27.4964 12.2816 61.3525 0
M  V30 19 H 27.6515 2.293 64.8889 0
M  V30 20 H 26.5904 3.0041 63.5023 0
M  V30 21 H 28.6404 9.1776 64.5696 0
M  V30 22 H 29.8315 8.3598 63.5024 0
M  V30 23 H 28.9326 9.3368 61.5478 0
M  V30 24 H 30.6392 6.4771 66.7026 0
M  V30 25 H 30.476 4.6474 67.1267 0
M  V30 26 H 28.8152 11.601 63.6008 0
M  V30 27 H 30.3107 10.9314 62.865 0
M  V30 28 H 26.5402 8.9771 61.9929 0
M  V30 29 H 26.5325 10.379 63.1159 0
M  V30 30 H 29.3816 11.5011 60.5518 0
M  V30 31 H 29.5672 12.9639 61.5776 0
M  V30 32 H 27.2736 10.4802 60.1149 0
M  V30 33 H 25.7375 11.0716 60.8338 0
M  V30 34 H 27.2941 13.0125 60.5558 0
M  V30 35 H 27.115 12.6678 62.3096 0
M  V30 END ATOM
M  V30 BEGIN BOND
M  V30 1 2 1 2
M  V30 2 1 2 3
M  V30 3 2 3 4
M  V30 4 1 3 5
M  V30 5 1 4 6
M  V30 6 1 4 7
M  V30 7 2 5 8
M  V30 8 1 5 9
M  V30 9 1 6 10
M  V30 10 2 7 11
M  V30 11 1 10 12
M  V30 12 1 11 13
M  V30 13 1 12 14
M  V30 14 1 12 15
M  V30 15 1 14 16
M  V30 16 1 15 17
M  V30 17 1 16 18
M  V30 18 1 8 11
M  V30 19 1 17 18
M  V30 20 1 9 19
M  V30 21 1 9 20
M  V30 22 1 10 21
M  V30 23 1 10 22
M  V30 24 1 12 23
M  V30 25 1 13 24
M  V30 26 1 13 25
M  V30 27 1 14 26
M  V30 28 1 14 27
M  V30 29 1 15 28
M  V30 30 1 15 29
M  V30 31 1 16 30
M  V30 32 1 16 31
M  V30 33 1 17 32
M  V30 34 1 17 33
M  V30 35 1 18 34
M  V30 36 1 18 35
M  V30 END BOND
M  V30 END CTAB
M  END
>  <Molecule Name>
DGWXOLHKVGDQLN-KGJHZMDYNA-N

>  <hs_clash>
1.0

>  <hs_total>
67.38291934416954

>  <Total Molweight>
251.289

>  <cLogP>
1.2643

>  <H-Acceptors>
7

>  <H-Donors>
2

>  <Polar Surface Area>
116.48

>  <Non-H Atoms>
18

>  <sp3-Atoms>
8

$$$$
HULMMZPBCUBDJN-QGACCKHDNA-O
Actelion Java MolfileCreator 2.0

  0  0  0  0  0  0              0 V3000
M  V30 BEGIN CTAB
M  V30 COUNTS 55 57 0 0 0
M  V30 BEGIN ATOM
M  V30 1 S 33.1943 10.4759 64.9368 0
M  V30 2 O 33.8201 10.474 66.2236 0
M  V30 3 O 33.999 10.2983 63.7656 0
M  V30 4 N 32.4531 11.901 64.7744 0
M  V30 5 C 31.954 9.2271 64.9137 0
M  V30 6 C 31.356 12.2823 65.6752 0
M  V30 7 C 31.0898 9.1495 63.8361 0
M  V30 8 C 31.8862 8.2946 65.9394 0
M  V30 9 C 31.425 13.773 65.996 0
M  V30 10 C 30.1297 8.1555 63.8014 0
M  V30 11 C 30.9184 7.3064 65.8916 0
M  V30 12 N 31.3667 14.7055 64.8644 0 CHG=1
M  V30 13 C 30.0271 7.2049 64.817 0
M  V30 14 C 31.9995 15.9809 65.1901 0
M  V30 15 C 29.9869 14.925 64.4294 0
M  V30 16 C 28.9942 6.1387 64.7635 0
M  V30 17 N 28.0092 6.2955 63.8614 0
M  V30 18 C 29.1095 4.9406 65.4738 0
M  V30 19 C 27.1653 5.2726 63.6312 0
M  V30 20 N 28.2913 3.9021 65.2721 0
M  V30 21 C 27.2973 4.0349 64.3673 0
M  V30 22 C 26.1056 5.4967 62.5914 0
M  V30 23 N 26.4992 2.9893 64.1428 0
M  V30 24 O 25.215 4.6697 62.43 0
M  V30 25 N 26.2227 6.6512 61.9024 0
M  V30 26 C 25.3568 7.1647 60.9095 0
M  V30 27 C 24.0204 6.799 60.7431 0
M  V30 28 C 25.8615 8.145 60.0719 0
M  V30 29 N 23.2167 7.3324 59.8134 0
M  V30 30 C 25.0475 8.6969 59.1019 0
M  V30 31 C 23.7379 8.2753 59.0226 0
M  V30 32 H 32.3749 12.2394 63.8367 0
M  V30 33 H 30.3902 12.0157 65.2212 0
M  V30 34 H 31.4048 11.6997 66.6068 0
M  V30 35 H 31.1462 9.8784 63.0305 0
M  V30 36 H 32.5595 8.3446 66.7927 0
M  V30 37 H 30.6183 14.0589 66.6877 0
M  V30 38 H 32.3375 13.9881 66.5715 0
M  V30 39 H 29.4644 8.1388 62.9389 0
M  V30 40 H 30.8966 6.6112 66.7284 0
M  V30 41 H 31.8691 14.2965 64.103 0
M  V30 42 H 33.0867 15.815 65.2098 0
M  V30 43 H 31.7238 16.3687 66.1821 0
M  V30 44 H 31.8351 16.8097 64.486 0
M  V30 45 H 29.9874 15.5243 63.5072 0
M  V30 46 H 29.4291 15.5145 65.1721 0
M  V30 47 H 29.3919 14.0383 64.2108 0
M  V30 48 H 29.8505 4.7653 66.248 0
M  V30 49 H 25.7463 3.013 63.4851 0
M  V30 50 H 26.6032 2.1159 64.6184 0
M  V30 51 H 27.0035 7.2445 62.0983 0
M  V30 52 H 23.5099 6.0609 61.3595 0
M  V30 53 H 26.8908 8.4936 60.1337 0
M  V30 54 H 25.4363 9.4615 58.4312 0
M  V30 55 H 23.0604 8.6823 58.273 0
M  V30 END ATOM
M  V30 BEGIN BOND
M  V30 1 2 1 2
M  V30 2 2 1 3
M  V30 3 1 1 4
M  V30 4 1 1 5
M  V30 5 1 4 6
M  V30 6 2 5 7
M  V30 7 1 5 8
M  V30 8 1 6 9
M  V30 9 1 7 10
M  V30 10 2 8 11
M  V30 11 1 9 12
M  V30 12 2 10 13
M  V30 13 1 12 14
M  V30 14 1 12 15
M  V30 15 1 13 16
M  V30 16 2 16 17
M  V30 17 1 16 18
M  V30 18 1 17 19
M  V30 19 2 18 20
M  V30 20 2 19 21
M  V30 21 1 19 22
M  V30 22 1 21 23
M  V30 23 2 22 24
M  V30 24 1 22 25
M  V30 25 1 25 26
M  V30 26 2 26 27
M  V30 27 1 26 28
M  V30 28 1 27 29
M  V30 29 2 28 30
M  V30 30 2 29 31
M  V30 31 1 11 13
M  V30 32 1 20 21
M  V30 33 1 30 31
M  V30 34 1 4 32
M  V30 35 1 6 33
M  V30 36 1 6 34
M  V30 37 1 7 35
M  V30 38 1 8 36
M  V30 39 1 9 37
M  V30 40 1 9 38
M  V30 41 1 10 39
M  V30 42 1 11 40
M  V30 43 1 12 41
M  V30 44 1 14 42
M  V30 45 1 14 43
M  V30 46 1 14 44
M  V30 47 1 15 45
M  V30 48 1 15 46
M  V30 49 1 15 47
M  V30 50 1 18 48
M  V30 51 1 23 49
M  V30 52 1 23 50
M  V30 53 1 25 51
M  V30 54 1 27 52
M  V30 55 1 28 53
M  V30 56 1 30 54
M  V30 57 1 31 55
M  V30 END BOND
M  V30 END CTAB
M  END
>  <Molecule Name>
HULMMZPBCUBDJN-QGACCKHDNA-O

>  <hs_clash>
6.0

>  <hs_total>
67.36157256494788

>  <Total Molweight>
442.523

>  <cLogP>
-1.2584

>  <H-Acceptors>
10

>  <H-Donors>
4

>  <Polar Surface Area>
152.78

>  <Non-H Atoms>
31

>  <sp3-Atoms>
6

$$$$
MWGXGTJJAOZBNW-QZINJFTLNA-N
Actelion Java MolfileCreator 2.0

  0  0  0  0  0  0              0 V3000
M  V30 BEGIN CTAB
M  V30 COUNTS 35 37 0 0 0
M  V30 BEGIN ATOM
M  V30 1 O 27.497 7.7013 63.1395 0
M  V30 2 C 28.088 6.7185 63.932 0
M  V30 3 C 28.4956 8.7269 62.8601 0
M  V30 4 N 29.2078 6.8587 64.6419 0
M  V30 5 C 27.4922 5.4601 63.9504 0
M  V30 6 C 27.7802 9.5427 61.7085 0
M  V30 7 C 29.7298 5.8885 65.382 0
M  V30 8 N 26.4427 4.8772 63.3865 0
M  V30 9 C 28.0295 4.4476 64.6821 0
M  V30 10 C 26.5886 10.2983 62.3892 0
M  V30 11 C 28.6667 10.7873 61.8293 0
M  V30 12 N 29.1218 4.6872 65.3973 0
M  V30 13 N 30.8703 5.8576 66.1166 0
M  V30 14 C 26.2241 3.5654 63.7375 0
M  V30 15 N 27.3009 3.3477 64.5273 0
M  V30 16 C 26.0476 11.2896 61.3591 0
M  V30 17 C 28.1975 11.8334 60.7756 0
M  V30 18 C 27.0143 12.4693 61.6204 0
M  V30 19 H 28.6855 9.3563 63.7421 0
M  V30 20 H 29.4416 8.2853 62.5144 0
M  V30 21 H 27.6286 9.0652 60.7293 0
M  V30 22 H 25.8025 9.5848 62.677 0
M  V30 23 H 26.9412 10.8352 63.2824 0
M  V30 24 H 28.5743 11.2121 62.8398 0
M  V30 25 H 29.7154 10.5153 61.6403 0
M  V30 26 H 31.3395 6.7375 66.0417 0
M  V30 27 H 30.962 4.9626 66.5528 0
M  V30 28 H 25.4207 2.8985 63.4611 0
M  V30 29 H 27.5212 2.4659 64.9441 0
M  V30 30 H 26.1354 10.9051 60.3324 0
M  V30 31 H 25.0012 11.5627 61.5603 0
M  V30 32 H 27.842 11.3616 59.848 0
M  V30 33 H 28.9817 12.5669 60.537 0
M  V30 34 H 26.6532 13.424 61.2099 0
M  V30 35 H 27.2623 12.5985 62.6843 0
M  V30 END ATOM
M  V30 BEGIN BOND
M  V30 1 1 1 2
M  V30 2 1 1 3
M  V30 3 2 2 4
M  V30 4 1 2 5
M  V30 5 1 3 6
M  V30 6 1 4 7
M  V30 7 1 5 8
M  V30 8 2 5 9
M  V30 9 1 6 10
M  V30 10 1 6 11
M  V30 11 2 7 12
M  V30 12 1 7 13
M  V30 13 2 8 14
M  V30 14 1 9 15
M  V30 15 1 10 16
M  V30 16 1 11 17
M  V30 17 1 16 18
M  V30 18 1 9 12
M  V30 19 1 14 15
M  V30 20 1 17 18
M  V30 21 1 3 19
M  V30 22 1 3 20
M  V30 23 1 6 21
M  V30 24 1 10 22
M  V30 25 1 10 23
M  V30 26 1 11 24
M  V30 27 1 11 25
M  V30 28 1 13 26
M  V30 29 1 13 27
M  V30 30 1 14 28
M  V30 31 1 15 29
M  V30 32 1 16 30
M  V30 33 1 16 31
M  V30 34 1 17 32
M  V30 35 1 17 33
M  V30 36 1 18 34
M  V30 37 1 18 35
M  V30 END BOND
M  V30 END CTAB
M  END
>  <Molecule Name>
MWGXGTJJAOZBNW-QZINJFTLNA-N

>  <hs_clash>
2.0

>  <hs_total>
65.35261678541723

>  <Total Molweight>
247.301

>  <cLogP>
1.7029

>  <H-Acceptors>
6

>  <H-Donors>
2

>  <Polar Surface Area>
89.71

>  <Non-H Atoms>
18

>  <sp3-Atoms>
8

$$$$
RTHKPHCVZVYDFN-MNIXEANVNA-N
Actelion Java MolfileCreator 2.0

  0  0  0  0  0  0              0 V3000
M  V30 BEGIN CTAB
M  V30 COUNTS 33 36 0 0 0
M  V30 BEGIN ATOM
M  V30 1 O 22.7571 6.9636 61.0224 0
M  V30 2 C 23.2376 5.8192 61.5916 0
M  V30 3 C 24.3655 5.8028 62.5696 0
M  V30 4 C 22.6752 4.5895 61.2636 0
M  V30 5 C 24.8157 4.5125 63.1315 0
M  V30 6 C 25.2895 6.7446 63.2517 0
M  V30 7 C 23.1712 3.4118 61.839 0
M  V30 8 N 25.8379 4.6089 64.0088 0
M  V30 9 N 24.1914 3.3712 62.7327 0
M  V30 10 C 25.3922 8.2183 63.1343 0
M  V30 11 C 26.1728 5.9006 64.1289 0
M  V30 12 C 26.4866 3.6519 64.6896 0
M  V30 13 N 26.4937 8.7726 63.6805 0
M  V30 14 C 24.4433 9.0065 62.4907 0
M  V30 15 C 27.2138 6.2691 64.9822 0
M  V30 16 N 27.5022 3.9808 65.5289 0
M  V30 17 N 26.1366 2.3639 64.5543 0
M  V30 18 C 26.6941 10.0983 63.6339 0
M  V30 19 C 24.6664 10.3825 62.4508 0
M  V30 20 C 27.8751 5.2628 65.6875 0
M  V30 21 N 25.7769 10.8992 63.0197 0
M  V30 22 N 27.8258 10.5832 64.2075 0
M  V30 23 H 21.854 4.5424 60.5637 0
M  V30 24 H 22.7122 2.4774 61.553 0
M  V30 25 H 24.4883 2.4909 63.1029 0
M  V30 26 H 23.5657 8.5688 62.0386 0
M  V30 27 H 27.4995 7.3048 65.0939 0
M  V30 28 H 26.7201 1.7968 65.1354 0
M  V30 29 H 25.3786 2.2903 63.906 0
M  V30 30 H 23.9531 11.033 61.9662 0
M  V30 31 H 28.6835 5.513 66.3585 0
M  V30 32 H 27.8553 11.5769 64.0995 0
M  V30 33 H 28.3522 9.8279 64.5975 0
M  V30 END ATOM
M  V30 BEGIN BOND
M  V30 1 2 1 2
M  V30 2 1 2 3
M  V30 3 1 2 4
M  V30 4 2 3 5
M  V30 5 1 3 6
M  V30 6 2 4 7
M  V30 7 1 5 8
M  V30 8 1 5 9
M  V30 9 1 6 10
M  V30 10 2 6 11
M  V30 11 1 8 12
M  V30 12 2 10 13
M  V30 13 1 10 14
M  V30 14 1 11 15
M  V30 15 2 12 16
M  V30 16 1 12 17
M  V30 17 1 13 18
M  V30 18 2 14 19
M  V30 19 2 15 20
M  V30 20 2 18 21
M  V30 21 1 18 22
M  V30 22 1 7 9
M  V30 23 1 8 11
M  V30 24 1 16 20
M  V30 25 1 19 21
M  V30 26 1 4 23
M  V30 27 1 7 24
M  V30 28 1 9 25
M  V30 29 1 14 26
M  V30 30 1 15 27
M  V30 31 1 17 28
M  V30 32 1 17 29
M  V30 33 1 19 30
M  V30 34 1 20 31
M  V30 35 1 22 32
M  V30 36 1 22 33
M  V30 END BOND
M  V30 END CTAB
M  END
>  <Molecule Name>
RTHKPHCVZVYDFN-MNIXEANVNA-N

>  <hs_clash>
1.0

>  <hs_total>
65.2967587276733

>  <Total Molweight>
293.289

>  <cLogP>
-0.1202

>  <H-Acceptors>
8

>  <H-Donors>
3

>  <Polar Surface Area>
124.22

>  <Non-H Atoms>
22

>  <sp3-Atoms>
0

$$$$
GBRORGYPYNNDGL-VCCDFAHZNA-O
Actelion Java MolfileCreator 2.0

  0  0  0  0  0  0              0 V3000
M  V30 BEGIN CTAB
M  V30 COUNTS 67 71 0 0 0
M  V30 BEGIN ATOM
M  V30 1 O 21.8374 12.0714 60.1072 0
M  V30 2 C 22.1204 10.9792 59.2267 0
M  V30 3 C 21.272 11.5824 61.3201 0
M  V30 4 C 23.2301 10.1313 59.8167 0
M  V30 5 C 22.3528 10.8166 62.0452 0
M  V30 6 N 22.8691 9.7623 61.1795 0
M  V30 7 C 23.3259 8.5992 61.7536 0
M  V30 8 N 22.5559 7.5558 61.818 0
M  V30 9 C 24.709 8.6269 62.2841 0
M  V30 10 N 23.0939 6.4766 62.3981 0
M  V30 11 C 25.1613 7.5083 62.8522 0
M  V30 12 N 22.3796 5.3462 62.5192 0
M  V30 13 C 24.3445 6.3774 62.9293 0
M  V30 14 C 23.2088 4.5048 63.1415 0
M  V30 15 C 24.4595 5.1002 63.4254 0
M  V30 16 C 25.6083 4.5577 64.1001 0
M  V30 17 N 26.4872 5.4101 64.6366 0
M  V30 18 C 25.7424 3.1956 64.1787 0
M  V30 19 C 27.5442 4.88 65.2656 0
M  V30 20 C 26.8553 2.7573 64.8482 0
M  V30 21 N 27.7604 3.5687 65.3942 0
M  V30 22 N 28.5082 5.7095 65.8555 0
M  V30 23 C 28.8499 6.9936 65.4027 0
M  V30 24 C 28.6517 7.3177 64.0809 0
M  V30 25 C 29.3935 7.9427 66.2421 0
M  V30 26 C 28.9792 8.5657 63.6012 0
M  V30 27 C 29.7295 9.1955 65.7777 0
M  V30 28 C 29.5219 9.5004 64.4519 0
M  V30 29 O 29.8412 10.7543 63.9685 0
M  V30 30 C 30.1342 11.583 65.088 0
M  V30 31 C 30.903 12.7825 64.5861 0 CFG=1
M  V30 32 O 32.2397 12.3599 64.3336 0
M  V30 33 C 30.2506 13.2857 63.3114 0
M  V30 34 N 30.7978 14.6204 62.9525 0 CHG=1
M  V30 35 C 30.6451 14.9393 61.5081 0
M  V30 36 C 30.2739 15.6943 63.8335 0
M  V30 37 H 22.4371 11.3697 58.2483 0
M  V30 38 H 21.2162 10.3654 59.1012 0
M  V30 39 H 20.9262 12.4231 61.9398 0
M  V30 40 H 20.4239 10.9176 61.0983 0
M  V30 41 H 24.1683 10.7055 59.8261 0
M  V30 42 H 23.3622 9.2228 59.2109 0
M  V30 43 H 23.1693 11.5025 62.3145 0
M  V30 44 H 21.9339 10.3686 62.9584 0
M  V30 45 H 25.3229 9.5127 62.2141 0
M  V30 46 H 26.163 7.4768 63.2544 0
M  V30 47 H 22.9535 3.4873 63.3985 0
M  V30 48 H 25.0232 2.5171 63.7445 0
M  V30 49 H 27.0074 1.6921 64.9383 0
M  V30 50 H 29.2755 5.209 66.2559 0
M  V30 51 H 28.2326 6.5827 63.4098 0
M  V30 52 H 29.5586 7.7002 67.2814 0
M  V30 53 H 28.8106 8.8096 62.5628 0
M  V30 54 H 30.1512 9.9307 66.4474 0
M  V30 55 H 29.1989 11.9112 65.5659 0
M  V30 56 H 30.7422 11.0267 65.8166 0
M  V30 57 H 30.8822 13.5773 65.3462 0
M  V30 58 H 32.2284 11.5118 63.9063 0
M  V30 59 H 30.4528 12.5772 62.4948 0
M  V30 60 H 29.1643 13.3669 63.4657 0
M  V30 61 H 31.7816 14.5735 63.125 0
M  V30 62 H 31.0668 15.9348 61.3056 0
M  V30 63 H 31.1774 14.1865 60.9087 0
M  V30 64 H 29.5777 14.9324 61.2422 0
M  V30 65 H 30.7048 16.6602 63.5313 0
M  V30 66 H 29.1781 15.7386 63.746 0
M  V30 67 H 30.5497 15.4802 64.8766 0
M  V30 END ATOM
M  V30 BEGIN BOND
M  V30 1 1 1 2
M  V30 2 1 1 3
M  V30 3 1 2 4
M  V30 4 1 3 5
M  V30 5 1 4 6
M  V30 6 1 6 7
M  V30 7 2 7 8
M  V30 8 1 7 9
M  V30 9 1 8 10
M  V30 10 2 9 11
M  V30 11 1 10 12
M  V30 12 1 10 13
M  V30 13 2 12 14
M  V30 14 2 13 15
M  V30 15 1 15 16
M  V30 16 2 16 17
M  V30 17 1 16 18
M  V30 18 1 17 19
M  V30 19 2 18 20
M  V30 20 2 19 21
M  V30 21 1 19 22
M  V30 22 1 22 23
M  V30 23 2 23 24
M  V30 24 1 23 25
M  V30 25 1 24 26
M  V30 26 2 25 27
M  V30 27 2 26 28
M  V30 28 1 28 29
M  V30 29 1 29 30
M  V30 30 1 30 31
M  V30 31 1 31 32
M  V30 32 1 31 33
M  V30 33 1 33 34
M  V30 34 1 34 35
M  V30 35 1 34 36
M  V30 36 1 5 6
M  V30 37 1 11 13
M  V30 38 1 14 15
M  V30 39 1 20 21
M  V30 40 1 27 28
M  V30 41 1 2 37
M  V30 42 1 2 38
M  V30 43 1 3 39
M  V30 44 1 3 40
M  V30 45 1 4 41
M  V30 46 1 4 42
M  V30 47 1 5 43
M  V30 48 1 5 44
M  V30 49 1 9 45
M  V30 50 1 11 46
M  V30 51 1 14 47
M  V30 52 1 18 48
M  V30 53 1 20 49
M  V30 54 1 22 50
M  V30 55 1 24 51
M  V30 56 1 25 52
M  V30 57 1 26 53
M  V30 58 1 27 54
M  V30 59 1 30 55
M  V30 60 1 30 56
M  V30 61 1 31 57
M  V30 62 1 32 58
M  V30 63 1 33 59
M  V30 64 1 33 60
M  V30 65 1 34 61
M  V30 66 1 35 62
M  V30 67 1 35 63
M  V30 68 1 35 64
M  V30 69 1 36 65
M  V30 70 1 36 66
M  V30 71 1 36 67
M  V30 END BOND
M  V30 BEGIN COLLECTION
M  V30 MDLV30/STERAC1 ATOMS=(1 31)
M  V30 END COLLECTION
M  V30 END CTAB
M  END
>  <Molecule Name>
GBRORGYPYNNDGL-VCCDFAHZNA-O

>  <hs_clash>
19.0

>  <hs_total>
65.10121363737926

>  <Total Molweight>
491.574

>  <cLogP>
-0.1889

>  <H-Acceptors>
11

>  <H-Donors>
3

>  <Polar Surface Area>
114.37

>  <Non-H Atoms>
36

>  <sp3-Atoms>
13

$$$$
ZVSBKYYVBCKDBO-ADGGNQDJNA-O
Actelion Java MolfileCreator 2.0

  0  0  0  0  0  0              0 V3000
M  V30 BEGIN CTAB
M  V30 COUNTS 54 56 0 0 0
M  V30 BEGIN ATOM
M  V30 1 F 22.8818 5.732 61.2331 0
M  V30 2 C 23.5744 6.9033 61.3834 0
M  V30 3 C 24.8375 6.9324 62.0608 0
M  V30 4 C 23.0095 8.0925 60.8504 0
M  V30 5 N 25.3329 5.6282 62.5735 0
M  V30 6 C 25.5182 8.2115 62.1836 0
M  V30 7 C 23.688 9.3277 60.9798 0
M  V30 8 C 26.3345 5.0969 63.4906 0
M  V30 9 F 26.7205 8.3527 62.8055 0
M  V30 10 C 24.9343 9.3865 61.6429 0
M  V30 11 N 26.166 3.8184 63.8909 0
M  V30 12 C 27.453 5.8629 63.9571 0
M  V30 13 C 27.065 3.2939 64.7275 0
M  V30 14 C 28.3582 5.1966 64.8531 0
M  V30 15 N 28.1395 3.9163 65.221 0
M  V30 16 N 29.5429 5.8438 65.3975 0
M  V30 17 C 30.1631 7.1596 65.2777 0
M  V30 18 C 30.3923 7.8003 64.0162 0
M  V30 19 C 30.5552 7.8206 66.4732 0
M  V30 20 C 30.9947 9.0744 63.9573 0
M  V30 21 C 31.1615 9.1016 66.4151 0
M  V30 22 C 31.3838 9.7375 65.1515 0
M  V30 23 O 31.9644 10.9916 64.9792 0
M  V30 24 C 31.2228 12.2291 64.7855 0
M  V30 25 C 32.0951 13.4804 64.5504 0 CFG=1
M  V30 26 O 32.5073 13.5339 63.1866 0
M  V30 27 C 33.2915 13.7055 65.5039 0
M  V30 28 N 33.2099 14.8977 66.408 0 CHG=1
M  V30 29 C 33.6063 16.1676 65.7405 0
M  V30 30 C 34.0043 14.7068 67.6566 0
M  V30 31 H 22.0565 8.0542 60.3437 0
M  V30 32 H 24.8165 4.879 62.159 0
M  V30 33 H 23.2522 10.2273 60.5708 0
M  V30 34 H 25.4461 10.3329 61.739 0
M  V30 35 H 27.6074 6.8873 63.6516 0
M  V30 36 H 26.9088 2.2704 65.0343 0
M  V30 37 H 30.2574 5.1571 65.5312 0
M  V30 38 H 30.101 7.3034 63.1028 0
M  V30 39 H 30.3906 7.3462 67.4293 0
M  V30 40 H 31.1606 9.5475 63.0007 0
M  V30 41 H 31.4566 9.5994 67.3272 0
M  V30 42 H 30.5666 12.101 63.9123 0
M  V30 43 H 30.6097 12.404 65.6822 0
M  V30 44 H 31.4262 14.3386 64.7133 0
M  V30 45 H 32.7958 12.6728 62.9088 0
M  V30 46 H 33.3868 12.8115 66.1375 0
M  V30 47 H 34.195 13.8155 64.8865 0
M  V30 48 H 32.2523 14.9943 66.6805 0
M  V30 49 H 33.5245 16.9997 66.4555 0
M  V30 50 H 34.6452 16.0877 65.3886 0
M  V30 51 H 32.9421 16.3542 64.8837 0
M  V30 52 H 33.9163 15.6029 68.2886 0
M  V30 53 H 33.6218 13.8331 68.2044 0
M  V30 54 H 35.0606 14.5435 67.3973 0
M  V30 END ATOM
M  V30 BEGIN BOND
M  V30 1 1 1 2
M  V30 2 2 2 3
M  V30 3 1 2 4
M  V30 4 1 3 5
M  V30 5 1 3 6
M  V30 6 2 4 7
M  V30 7 1 5 8
M  V30 8 1 6 9
M  V30 9 2 6 10
M  V30 10 2 8 11
M  V30 11 1 8 12
M  V30 12 1 11 13
M  V30 13 2 12 14
M  V30 14 2 13 15
M  V30 15 1 14 16
M  V30 16 1 16 17
M  V30 17 2 17 18
M  V30 18 1 17 19
M  V30 19 1 18 20
M  V30 20 2 19 21
M  V30 21 2 20 22
M  V30 22 1 22 23
M  V30 23 1 23 24
M  V30 24 1 24 25
M  V30 25 1 25 26
M  V30 26 1 25 27
M  V30 27 1 27 28
M  V30 28 1 28 29
M  V30 29 1 28 30
M  V30 30 1 7 10
M  V30 31 1 14 15
M  V30 32 1 21 22
M  V30 33 1 4 31
M  V30 34 1 5 32
M  V30 35 1 7 33
M  V30 36 1 10 34
M  V30 37 1 12 35
M  V30 38 1 13 36
M  V30 39 1 16 37
M  V30 40 1 18 38
M  V30 41 1 19 39
M  V30 42 1 20 40
M  V30 43 1 21 41
M  V30 44 1 24 42
M  V30 45 1 24 43
M  V30 46 1 25 44
M  V30 47 1 26 45
M  V30 48 1 27 46
M  V30 49 1 27 47
M  V30 50 1 28 48
M  V30 51 1 29 49
M  V30 52 1 29 50
M  V30 53 1 29 51
M  V30 54 1 30 52
M  V30 55 1 30 53
M  V30 56 1 30 54
M  V30 END BOND
M  V30 BEGIN COLLECTION
M  V30 MDLV30/STERAC1 ATOMS=(1 25)
M  V30 END COLLECTION
M  V30 END CTAB
M  END
>  <Molecule Name>
ZVSBKYYVBCKDBO-ADGGNQDJNA-O

>  <hs_clash>
52.0

>  <hs_total>
65.01110298924999

>  <Total Molweight>
416.451

>  <cLogP>
1.7577

>  <H-Acceptors>
7

>  <H-Donors>
4

>  <Polar Surface Area>
83.74

>  <Non-H Atoms>
30

>  <sp3-Atoms>
8

$$$$
ZVSBKYYVBCKDBO-WANINUHANA-O
Actelion Java MolfileCreator 2.0

  0  0  0  0  0  0              0 V3000
M  V30 BEGIN CTAB
M  V30 COUNTS 54 56 0 0 0
M  V30 BEGIN ATOM
M  V30 1 F 22.8579 6.8918 62.007 0
M  V30 2 C 23.9726 7.3221 61.3364 0
M  V30 3 C 25.2497 6.7213 61.5687 0
M  V30 4 C 23.836 8.3845 60.4047 0
M  V30 5 N 25.3095 5.6232 62.5547 0
M  V30 6 C 26.3909 7.2182 60.8257 0
M  V30 7 C 24.9623 8.8587 59.6882 0
M  V30 8 C 26.3111 5.0921 63.4718 0
M  V30 9 F 27.6448 6.7023 60.9847 0
M  V30 10 C 26.2344 8.2798 59.8982 0
M  V30 11 N 26.1427 3.8134 63.8721 0
M  V30 12 C 27.4298 5.8581 63.9383 0
M  V30 13 C 27.0417 3.289 64.7087 0
M  V30 14 C 28.3348 5.1918 64.8344 0
M  V30 15 N 28.1162 3.9114 65.2022 0
M  V30 16 N 29.5198 5.8389 65.3788 0
M  V30 17 C 30.14 7.1547 65.259 0
M  V30 18 C 30.3692 7.7956 63.9973 0
M  V30 19 C 30.5321 7.816 66.4545 0
M  V30 20 C 30.9716 9.0696 63.9385 0
M  V30 21 C 31.1384 9.0969 66.3964 0
M  V30 22 C 31.3605 9.7328 65.1327 0
M  V30 23 O 31.9413 10.987 64.9605 0
M  V30 24 C 31.1997 12.2244 64.7668 0
M  V30 25 C 32.1338 13.4455 64.6947 0 CFG=1
M  V30 26 O 32.9817 13.3877 63.5982 0
M  V30 27 C 31.5092 14.8485 64.8925 0
M  V30 28 N 32.3596 16.0371 64.5495 0 CHG=1
M  V30 29 C 33.1929 16.5153 65.6852 0
M  V30 30 C 31.5464 17.1658 64.0053 0
M  V30 31 H 22.8675 8.834 60.2414 0
M  V30 32 H 24.7245 4.8745 62.243 0
M  V30 33 H 24.8485 9.6657 58.9794 0
M  V30 34 H 27.0898 8.6467 59.3507 0
M  V30 35 H 27.584 6.8824 63.6328 0
M  V30 36 H 26.8855 2.2652 65.0156 0
M  V30 37 H 30.2343 5.1522 65.5124 0
M  V30 38 H 30.0779 7.2986 63.0841 0
M  V30 39 H 30.3675 7.3415 67.4107 0
M  V30 40 H 31.1375 9.5427 62.982 0
M  V30 41 H 31.4335 9.5946 67.3086 0
M  V30 42 H 30.6306 12.1554 63.8279 0
M  V30 43 H 30.5035 12.358 65.6083 0
M  V30 44 H 32.7868 13.3266 65.572 0
M  V30 45 H 33.8549 13.657 63.8581 0
M  V30 46 H 30.6049 14.8985 64.2682 0
M  V30 47 H 31.2284 14.9388 65.9525 0
M  V30 48 H 32.9854 15.7494 63.8247 0
M  V30 49 H 33.7871 17.3836 65.3646 0
M  V30 50 H 32.5403 16.8066 66.5217 0
M  V30 51 H 33.8671 15.7092 66.0099 0
M  V30 52 H 32.2067 18.0129 63.768 0
M  V30 53 H 31.0287 16.8374 63.092 0
M  V30 54 H 30.8045 17.4782 64.755 0
M  V30 END ATOM
M  V30 BEGIN BOND
M  V30 1 1 1 2
M  V30 2 2 2 3
M  V30 3 1 2 4
M  V30 4 1 3 5
M  V30 5 1 3 6
M  V30 6 2 4 7
M  V30 7 1 5 8
M  V30 8 1 6 9
M  V30 9 2 6 10
M  V30 10 2 8 11
M  V30 11 1 8 12
M  V30 12 1 11 13
M  V30 13 2 12 14
M  V30 14 2 13 15
M  V30 15 1 14 16
M  V30 16 1 16 17
M  V30 17 2 17 18
M  V30 18 1 17 19
M  V30 19 1 18 20
M  V30 20 2 19 21
M  V30 21 2 20 22
M  V30 22 1 22 23
M  V30 23 1 23 24
M  V30 24 1 24 25
M  V30 25 1 25 26
M  V30 26 1 25 27
M  V30 27 1 27 28
M  V30 28 1 28 29
M  V30 29 1 28 30
M  V30 30 1 7 10
M  V30 31 1 14 15
M  V30 32 1 21 22
M  V30 33 1 4 31
M  V30 34 1 5 32
M  V30 35 1 7 33
M  V30 36 1 10 34
M  V30 37 1 12 35
M  V30 38 1 13 36
M  V30 39 1 16 37
M  V30 40 1 18 38
M  V30 41 1 19 39
M  V30 42 1 20 40
M  V30 43 1 21 41
M  V30 44 1 24 42
M  V30 45 1 24 43
M  V30 46 1 25 44
M  V30 47 1 26 45
M  V30 48 1 27 46
M  V30 49 1 27 47
M  V30 50 1 28 48
M  V30 51 1 29 49
M  V30 52 1 29 50
M  V30 53 1 29 51
M  V30 54 1 30 52
M  V30 55 1 30 53
M  V30 56 1 30 54
M  V30 END BOND
M  V30 BEGIN COLLECTION
M  V30 MDLV30/STERAC1 ATOMS=(1 25)
M  V30 END COLLECTION
M  V30 END CTAB
M  END
>  <Molecule Name>
ZVSBKYYVBCKDBO-WANINUHANA-O

>  <hs_clash>
35.0

>  <hs_total>
64.79825394500247

>  <Total Molweight>
416.451

>  <cLogP>
1.7577

>  <H-Acceptors>
7

>  <H-Donors>
4

>  <Polar Surface Area>
83.74

>  <Non-H Atoms>
30

>  <sp3-Atoms>
8

$$$$
BBZUBCUIVIEBCP-JAJSHJQTNA-P
Actelion Java MolfileCreator 2.0

  0  0  0  0  0  0              0 V3000
M  V30 BEGIN CTAB
M  V30 COUNTS 58 61 0 0 0
M  V30 BEGIN ATOM
M  V30 1 S 33.201 10.4968 65.0593 0
M  V30 2 O 34.4125 10.1007 64.1142 0
M  V30 3 O 33.7455 11.0909 66.4213 0
M  V30 4 N 32.2271 11.6782 64.2337 0
M  V30 5 C 32.2238 9.0885 65.352 0
M  V30 6 C 31.2923 12.3611 65.1565 0
M  V30 7 C 31.2104 8.7514 64.4298 0
M  V30 8 C 32.483 8.2965 66.5007 0
M  V30 9 C 30.9298 13.7582 64.6364 0
M  V30 10 C 30.4488 7.5928 64.6513 0
M  V30 11 C 31.7124 7.1307 66.7195 0
M  V30 12 C 32.1683 14.691 64.4899 0
M  V30 13 C 30.6925 6.7605 65.7963 0
M  V30 14 N 31.9188 16.1673 64.3046 0 CHG=1
M  V30 15 N 29.9598 5.542 66.0551 0
M  V30 16 C 31.5722 16.8971 65.5558 0
M  V30 17 C 30.9072 16.4564 63.2308 0
M  V30 18 C 28.9093 4.8159 65.3838 0
M  V30 19 N 28.1768 5.5478 64.5284 0
M  V30 20 N 28.7294 3.5117 65.6188 0
M  V30 21 C 27.1667 4.9595 63.8281 0
M  V30 22 C 27.7472 2.8726 64.9574 0
M  V30 23 C 26.378 5.7263 62.9132 0
M  V30 24 C 26.9123 3.5535 64.0295 0
M  V30 25 N 25.1349 5.366 62.3496 0
M  V30 26 C 26.6684 7.0692 62.4263 0
M  V30 27 N 24.3469 4.1829 62.3359 0
M  V30 28 C 24.8661 6.4694 61.5371 0
M  V30 29 N 25.6929 7.5577 61.538 0 CHG=1
M  V30 30 C 23.223 4.1284 61.6318 0
M  V30 31 C 23.5462 6.3684 60.7052 0
M  V30 32 C 22.8137 5.1936 60.8379 0
M  V30 33 H 31.9365 11.4973 63.2942 0
M  V30 34 H 30.3744 11.7617 65.2478 0
M  V30 35 H 31.7671 12.4569 66.1442 0
M  V30 36 H 31.0235 9.3745 63.5678 0
M  V30 37 H 33.2576 8.5798 67.1982 0
M  V30 38 H 30.4511 13.6528 63.6516 0
M  V30 39 H 30.2223 14.2221 65.3399 0
M  V30 40 H 29.6703 7.3244 63.9525 0
M  V30 41 H 31.8979 6.5189 67.5899 0
M  V30 42 H 32.7773 14.573 65.3982 0
M  V30 43 H 32.74 14.3429 63.6172 0
M  V30 44 H 32.7825 16.5558 63.9839 0
M  V30 45 H 30.554 4.8955 66.5334 0
M  V30 46 H 31.4083 17.9606 65.3274 0
M  V30 47 H 30.6553 16.4694 65.9877 0
M  V30 48 H 32.3971 16.8002 66.277 0
M  V30 49 H 30.767 17.5439 63.1415 0
M  V30 50 H 31.265 16.0528 62.2723 0
M  V30 51 H 29.949 15.9839 63.4931 0
M  V30 52 H 27.5893 1.8194 65.1357 0
M  V30 53 H 26.1233 3.0415 63.4989 0
M  V30 54 H 27.5429 7.632 62.7179 0
M  V30 55 H 25.6252 8.4314 61.056 0
M  V30 56 H 22.6137 3.2378 61.6766 0
M  V30 57 H 23.2195 7.1709 60.0603 0
M  V30 58 H 21.8824 5.1047 60.2981 0
M  V30 END ATOM
M  V30 BEGIN BOND
M  V30 1 2 1 2
M  V30 2 2 1 3
M  V30 3 1 1 4
M  V30 4 1 1 5
M  V30 5 1 4 6
M  V30 6 2 5 7
M  V30 7 1 5 8
M  V30 8 1 6 9
M  V30 9 1 7 10
M  V30 10 2 8 11
M  V30 11 1 9 12
M  V30 12 2 10 13
M  V30 13 1 12 14
M  V30 14 1 13 15
M  V30 15 1 14 16
M  V30 16 1 14 17
M  V30 17 1 15 18
M  V30 18 2 18 19
M  V30 19 1 18 20
M  V30 20 1 19 21
M  V30 21 2 20 22
M  V30 22 1 21 23
M  V30 23 2 21 24
M  V30 24 1 23 25
M  V30 25 2 23 26
M  V30 26 1 25 27
M  V30 27 1 25 28
M  V30 28 1 26 29
M  V30 29 2 27 30
M  V30 30 1 28 31
M  V30 31 1 30 32
M  V30 32 1 11 13
M  V30 33 1 22 24
M  V30 34 2 28 29
M  V30 35 2 31 32
M  V30 36 1 4 33
M  V30 37 1 6 34
M  V30 38 1 6 35
M  V30 39 1 7 36
M  V30 40 1 8 37
M  V30 41 1 9 38
M  V30 42 1 9 39
M  V30 43 1 10 40
M  V30 44 1 11 41
M  V30 45 1 12 42
M  V30 46 1 12 43
M  V30 47 1 14 44
M  V30 48 1 15 45
M  V30 49 1 16 46
M  V30 50 1 16 47
M  V30 51 1 16 48
M  V30 52 1 17 49
M  V30 53 1 17 50
M  V30 54 1 17 51
M  V30 55 1 22 52
M  V30 56 1 24 53
M  V30 57 1 26 54
M  V30 58 1 29 55
M  V30 59 1 30 56
M  V30 60 1 31 57
M  V30 61 1 32 58
M  V30 END BOND
M  V30 END CTAB
M  END
>  <Molecule Name>
BBZUBCUIVIEBCP-JAJSHJQTNA-P

>  <hs_clash>
1.0

>  <hs_total>
63.58358563021095

>  <Total Molweight>
454.557

>  <cLogP>
-2.3243

>  <H-Acceptors>
10

>  <H-Donors>
4

>  <Polar Surface Area>
128.24

>  <Non-H Atoms>
32

>  <sp3-Atoms>
7

$$$$
GTVPOLSIJWJJNY-XQMQJMAZNA-N
Actelion Java MolfileCreator 2.0

  0  0  0  0  0  0              0 V3000
M  V30 BEGIN CTAB
M  V30 COUNTS 40 42 0 0 0
M  V30 BEGIN ATOM
M  V30 1 O 29.1231 11.6858 61.412 0
M  V30 2 C 29.0776 10.2549 61.1805 0
M  V30 3 C 28.9267 9.5985 62.596 0
M  V30 4 N 27.7424 8.7127 62.9581 0
M  V30 5 C 27.9651 7.5216 63.708 0
M  V30 6 N 29.156 7.2929 64.2706 0
M  V30 7 N 27.0049 6.5609 63.7247 0
M  V30 8 C 29.469 6.2164 64.9612 0
M  V30 9 C 27.3916 5.3559 64.2971 0
M  V30 10 N 30.6303 6.2476 65.6632 0
M  V30 11 C 28.5739 5.13 64.9446 0
M  V30 12 N 26.6701 4.1721 64.331 0
M  V30 13 C 31.6548 7.2508 65.299 0
M  V30 14 N 28.6148 3.823 65.451 0
M  V30 15 C 27.4724 3.2746 65.0485 0
M  V30 16 C 25.3164 3.9394 63.662 0
M  V30 17 C 31.612 8.3991 66.1547 0
M  V30 18 C 31.3003 9.6484 65.5957 0
M  V30 19 C 31.9547 8.2618 67.4426 0
M  V30 20 C 31.3554 10.8387 66.3794 0
M  V30 21 C 32.0226 9.4037 68.2458 0
M  V30 22 C 31.7245 10.7137 67.7097 0
M  V30 23 H 29.9629 11.9196 61.813 0
M  V30 24 H 30.0058 9.9155 60.6978 0
M  V30 25 H 28.2178 9.9967 60.545 0
M  V30 26 H 28.9224 10.4272 63.3196 0
M  V30 27 H 29.8266 8.9848 62.7469 0
M  V30 28 H 26.8899 8.2655 63.2286 0
M  V30 29 H 30.4214 5.5192 66.3157 0
M  V30 30 H 32.649 6.7869 65.3775 0
M  V30 31 H 31.4818 7.5743 64.2623 0
M  V30 32 H 27.1938 2.2513 65.2518 0
M  V30 33 H 25.0058 2.8955 63.8151 0
M  V30 34 H 24.5679 4.6132 64.1047 0
M  V30 35 H 25.4006 4.1426 62.5843 0
M  V30 36 H 31.0144 9.7091 64.5561 0
M  V30 37 H 32.1745 7.2871 67.8523 0
M  V30 38 H 31.1182 11.802 65.9526 0
M  V30 39 H 32.3024 9.3064 69.2846 0
M  V30 40 H 31.789 11.5877 68.3412 0
M  V30 END ATOM
M  V30 BEGIN BOND
M  V30 1 1 1 2
M  V30 2 1 2 3
M  V30 3 1 3 4
M  V30 4 1 4 5
M  V30 5 2 5 6
M  V30 6 1 5 7
M  V30 7 1 6 8
M  V30 8 2 7 9
M  V30 9 1 8 10
M  V30 10 2 8 11
M  V30 11 1 9 12
M  V30 12 1 10 13
M  V30 13 1 11 14
M  V30 14 1 12 15
M  V30 15 1 12 16
M  V30 16 1 13 17
M  V30 17 2 17 18
M  V30 18 1 17 19
M  V30 19 1 18 20
M  V30 20 2 19 21
M  V30 21 2 20 22
M  V30 22 1 9 11
M  V30 23 2 14 15
M  V30 24 1 21 22
M  V30 25 1 1 23
M  V30 26 1 2 24
M  V30 27 1 2 25
M  V30 28 1 3 26
M  V30 29 1 3 27
M  V30 30 1 4 28
M  V30 31 1 10 29
M  V30 32 1 13 30
M  V30 33 1 13 31
M  V30 34 1 15 32
M  V30 35 1 16 33
M  V30 36 1 16 34
M  V30 37 1 16 35
M  V30 38 1 18 36
M  V30 39 1 19 37
M  V30 40 1 20 38
M  V30 41 1 21 39
M  V30 42 1 22 40
M  V30 END BOND
M  V30 END CTAB
M  END
>  <Molecule Name>
GTVPOLSIJWJJNY-XQMQJMAZNA-N

>  <hs_clash>
0.0

>  <hs_total>
63.46868496463526

>  <Total Molweight>
298.349

>  <cLogP>
1.0243

>  <H-Acceptors>
7

>  <H-Donors>
3

>  <Polar Surface Area>
87.89

>  <Non-H Atoms>
22

>  <sp3-Atoms>
5

$$$$
KRKQVGZXTNLQSV-XTWAYOAANA-O
Actelion Java MolfileCreator 2.0

  0  0  0  0  0  0              0 V3000
M  V30 BEGIN CTAB
M  V30 COUNTS 55 59 0 0 0
M  V30 BEGIN ATOM
M  V30 1 S 30.4887 8.9252 64.0883 0
M  V30 2 C 30.3644 7.7908 65.5007 0
M  V30 3 C 31.8298 9.8428 64.9125 0
M  V30 4 C 29.4426 6.6622 65.5025 0
M  V30 5 C 31.35 8.1716 66.5108 0
M  V30 6 N 32.1454 9.2982 66.1845 0
M  V30 7 C 32.5424 11.0459 64.3092 0
M  V30 8 N 29.7774 5.4669 66.1753 0
M  V30 9 C 28.2256 6.3367 64.778 0
M  V30 10 C 31.6177 7.4909 67.8201 0
M  V30 11 N 28.8272 4.3175 65.9017 0
M  V30 12 C 27.2644 6.881 63.8284 0
M  V30 13 C 27.9069 4.949 65.0378 0
M  V30 14 O 27.2254 7.9874 63.2869 0
M  V30 15 C 26.3666 5.7758 63.5235 0
M  V30 16 C 26.7488 4.5655 64.2581 0
M  V30 17 C 25.2418 5.698 62.5732 0
M  V30 18 C 26.0391 3.3014 64.0397 0
M  V30 19 N 24.9701 6.949 61.9631 0
M  V30 20 C 24.5008 4.4394 62.3287 0
M  V30 21 C 24.9215 3.2396 63.0758 0
M  V30 22 C 23.9656 7.2372 61.1341 0
M  V30 23 O 23.2904 6.3344 60.6257 0
M  V30 24 N 23.6914 8.5194 60.8697 0
M  V30 25 N 24.6402 9.4777 60.1891 0
M  V30 26 C 24.7521 9.2918 58.724 0
M  V30 27 C 25.833 10.1153 60.7874 0
M  V30 28 C 25.029 10.6046 58.0092 0
M  V30 29 C 26.1982 11.4211 60.0722 0
M  V30 30 N 26.2092 11.2883 58.5886 0 CHG=1
M  V30 31 C 26.6405 12.4292 57.7784 0
M  V30 32 H 32.1214 11.2625 63.3165 0
M  V30 33 H 32.4053 11.9196 64.9639 0
M  V30 34 H 33.6156 10.8253 64.2125 0
M  V30 35 H 30.5707 5.3859 66.7787 0
M  V30 36 H 31.9246 6.4508 67.6371 0
M  V30 37 H 32.4207 8.0221 68.352 0
M  V30 38 H 30.7034 7.5011 68.4324 0
M  V30 39 H 26.3332 2.4159 64.5833 0
M  V30 40 H 25.5996 7.696 62.1779 0
M  V30 41 H 23.6802 4.4013 61.6274 0
M  V30 42 H 24.406 2.304 62.9162 0
M  V30 43 H 22.7944 8.8686 61.1418 0
M  V30 44 H 23.8086 8.8719 58.3452 0
M  V30 45 H 25.5749 8.5921 58.5159 0
M  V30 46 H 25.6271 10.3345 61.8457 0
M  V30 47 H 26.6823 9.42 60.7154 0
M  V30 48 H 25.2179 10.4013 56.9449 0
M  V30 49 H 24.1504 11.2596 58.1072 0
M  V30 50 H 25.4625 12.1907 60.3498 0
M  V30 51 H 27.1991 11.7344 60.4037 0
M  V30 52 H 26.9404 10.6232 58.4374 0
M  V30 53 H 27.5158 12.9024 58.2473 0
M  V30 54 H 26.9073 12.0821 56.7695 0
M  V30 55 H 25.8214 13.1608 57.71 0
M  V30 END ATOM
M  V30 BEGIN BOND
M  V30 1 1 1 2
M  V30 2 1 1 3
M  V30 3 1 2 4
M  V30 4 2 2 5
M  V30 5 2 3 6
M  V30 6 1 3 7
M  V30 7 1 4 8
M  V30 8 2 4 9
M  V30 9 1 5 10
M  V30 10 1 8 11
M  V30 11 1 9 12
M  V30 12 1 9 13
M  V30 13 2 12 14
M  V30 14 1 12 15
M  V30 15 1 13 16
M  V30 16 1 15 17
M  V30 17 1 16 18
M  V30 18 1 17 19
M  V30 19 2 17 20
M  V30 20 2 18 21
M  V30 21 1 19 22
M  V30 22 2 22 23
M  V30 23 1 22 24
M  V30 24 1 24 25
M  V30 25 1 25 26
M  V30 26 1 25 27
M  V30 27 1 26 28
M  V30 28 1 27 29
M  V30 29 1 28 30
M  V30 30 1 30 31
M  V30 31 1 5 6
M  V30 32 2 11 13
M  V30 33 2 15 16
M  V30 34 1 20 21
M  V30 35 1 29 30
M  V30 36 1 7 32
M  V30 37 1 7 33
M  V30 38 1 7 34
M  V30 39 1 8 35
M  V30 40 1 10 36
M  V30 41 1 10 37
M  V30 42 1 10 38
M  V30 43 1 18 39
M  V30 44 1 19 40
M  V30 45 1 20 41
M  V30 46 1 21 42
M  V30 47 1 24 43
M  V30 48 1 26 44
M  V30 49 1 26 45
M  V30 50 1 27 46
M  V30 51 1 27 47
M  V30 52 1 28 48
M  V30 53 1 28 49
M  V30 54 1 29 50
M  V30 55 1 29 51
M  V30 56 1 30 52
M  V30 57 1 31 53
M  V30 58 1 31 54
M  V30 59 1 31 55
M  V30 END BOND
M  V30 END CTAB
M  END
>  <Molecule Name>
KRKQVGZXTNLQSV-XTWAYOAANA-O

>  <hs_clash>
0.0

>  <hs_total>
63.32067695912688

>  <Total Molweight>
438.535

>  <cLogP>
-1.0368

>  <H-Acceptors>
9

>  <H-Donors>
4

>  <Polar Surface Area>
135.69

>  <Non-H Atoms>
31

>  <sp3-Atoms>
9

$$$$
KOMNQBZWMCFDTQ-UOGFWVSCNA-O
Actelion Java MolfileCreator 2.0

  0  0  0  0  0  0              0 V3000
M  V30 BEGIN CTAB
M  V30 COUNTS 43 45 0 0 0
M  V30 BEGIN ATOM
M  V30 1 F 26.8876 6.7855 60.5008 0
M  V30 2 C 25.5922 7.1633 60.5044 0
M  V30 3 C 24.7098 6.5219 61.3811 0
M  V30 4 C 25.1594 8.1813 59.6526 0
M  V30 5 C 23.3894 6.9174 61.3668 0
M  V30 6 C 25.1743 5.4305 62.2913 0
M  V30 7 C 23.8262 8.5595 59.6623 0
M  V30 8 F 22.5326 6.308 62.2072 0
M  V30 9 C 22.9357 7.9301 60.522 0
M  V30 10 O 24.7081 4.2905 62.2112 0
M  V30 11 N 26.1199 5.7773 63.1846 0
M  V30 12 C 26.7984 4.9124 64.0326 0
M  V30 13 C 27.9093 5.2849 64.7784 0
M  V30 14 C 26.5819 3.5677 64.3214 0
M  V30 15 N 28.376 4.227 65.4975 0
M  V30 16 C 28.5305 6.6243 64.8107 0
M  V30 17 N 27.5504 3.1922 65.188 0
M  V30 18 O 27.9441 7.5962 64.3414 0
M  V30 19 N 29.7682 6.7121 65.348 0
M  V30 20 C 30.4659 7.9991 65.4163 0 CFG=2
M  V30 21 C 31.1663 8.3219 64.0843 0
M  V30 22 C 31.4688 8.0359 66.5694 0
M  V30 23 N 31.8578 9.641 64.1563 0 CHG=1
M  V30 24 C 32.197 9.3751 66.5972 0
M  V30 25 C 32.8637 9.6656 65.2566 0
M  V30 26 H 25.8587 8.6706 58.9909 0
M  V30 27 H 23.4805 9.3423 59.0032 0
M  V30 28 H 21.8961 8.2234 60.5364 0
M  V30 29 H 26.3554 6.7474 63.2431 0
M  V30 30 H 25.7921 2.944 63.9292 0
M  V30 31 H 27.647 2.2675 65.5559 0
M  V30 32 H 30.2124 5.8895 65.7031 0
M  V30 33 H 29.7214 8.7885 65.5978 0
M  V30 34 H 31.9066 7.538 63.867 0
M  V30 35 H 30.4163 8.3513 63.2802 0
M  V30 36 H 32.2024 7.2271 66.4377 0
M  V30 37 H 30.9337 7.8946 67.5201 0
M  V30 38 H 31.1786 10.3565 64.3201 0
M  V30 39 H 32.3211 9.8138 63.2872 0
M  V30 40 H 32.9663 9.3497 67.3832 0
M  V30 41 H 31.4731 10.1734 66.819 0
M  V30 42 H 33.3347 10.6591 65.2944 0
M  V30 43 H 33.6318 8.9028 65.0618 0
M  V30 END ATOM
M  V30 BEGIN BOND
M  V30 1 1 1 2
M  V30 2 2 2 3
M  V30 3 1 2 4
M  V30 4 1 3 5
M  V30 5 1 3 6
M  V30 6 2 4 7
M  V30 7 1 5 8
M  V30 8 2 5 9
M  V30 9 2 6 10
M  V30 10 1 6 11
M  V30 11 1 11 12
M  V30 12 1 12 13
M  V30 13 2 12 14
M  V30 14 2 13 15
M  V30 15 1 13 16
M  V30 16 1 14 17
M  V30 17 2 16 18
M  V30 18 1 16 19
M  V30 19 1 19 20
M  V30 20 1 20 21
M  V30 21 1 20 22
M  V30 22 1 21 23
M  V30 23 1 22 24
M  V30 24 1 23 25
M  V30 25 1 7 9
M  V30 26 1 15 17
M  V30 27 1 24 25
M  V30 28 1 4 26
M  V30 29 1 7 27
M  V30 30 1 9 28
M  V30 31 1 11 29
M  V30 32 1 14 30
M  V30 33 1 17 31
M  V30 34 1 19 32
M  V30 35 1 20 33
M  V30 36 1 21 34
M  V30 37 1 21 35
M  V30 38 1 22 36
M  V30 39 1 22 37
M  V30 40 1 23 38
M  V30 41 1 23 39
M  V30 42 1 24 40
M  V30 43 1 24 41
M  V30 44 1 25 42
M  V30 45 1 25 43
M  V30 END BOND
M  V30 BEGIN COLLECTION
M  V30 MDLV30/STERAC1 ATOMS=(1 20)
M  V30 END COLLECTION
M  V30 END CTAB
M  END
>  <Molecule Name>
KOMNQBZWMCFDTQ-UOGFWVSCNA-O

>  <hs_clash>
0.0

>  <hs_total>
63.12384644754209

>  <Total Molweight>
350.348

>  <cLogP>
0.3822

>  <H-Acceptors>
7

>  <H-Donors>
4

>  <Polar Surface Area>
103.49

>  <Non-H Atoms>
25

>  <sp3-Atoms>
6

$$$$
MBXKBJLIESPLIK-HXTKINSTNA-N
Actelion Java MolfileCreator 2.0

  0  0  0  0  0  0              0 V3000
M  V30 BEGIN CTAB
M  V30 COUNTS 46 50 0 0 0
M  V30 BEGIN ATOM
M  V30 1 S 32.2758 11.5141 64.5818 0
M  V30 2 O 33.4808 11.012 65.1891 0
M  V30 3 O 32.3863 11.9985 63.2374 0
M  V30 4 N 31.6293 12.7612 65.4858 0
M  V30 5 C 31.1467 10.128 64.6722 0
M  V30 6 C 31.4293 12.8615 66.8562 0
M  V30 7 C 30.322 9.79 63.4962 0
M  V30 8 C 30.9855 9.3477 65.9323 0
M  V30 9 N 30.2338 13.5241 67.3114 0
M  V30 10 C 32.3914 12.3083 67.8516 0
M  V30 11 C 29.3544 8.6905 63.5583 0
M  V30 12 C 29.9913 8.2656 66.0103 0
M  V30 13 C 29.9463 13.7058 68.7146 0
M  V30 14 C 32.0676 12.4729 69.2858 0
M  V30 15 C 29.1947 7.9174 64.8179 0
M  V30 16 C 30.8641 13.1991 69.7536 0
M  V30 17 N 28.4298 6.8189 64.9005 0
M  V30 18 C 26.9996 6.7232 64.6485 0
M  V30 19 C 26.344 5.5469 64.6821 0
M  V30 20 C 26.7543 4.3048 65.3949 0
M  V30 21 C 25.1735 5.1391 63.9341 0
M  V30 22 O 27.7172 4.231 66.1497 0
M  V30 23 N 25.9043 3.2971 65.0683 0
M  V30 24 C 24.36 5.8496 62.9459 0
M  V30 25 C 24.9848 3.7282 64.1732 0
M  V30 26 S 24.3485 7.4638 62.5139 0
M  V30 27 C 23.3844 5.0661 62.1031 0
M  V30 28 C 23.9891 2.9624 63.4037 0
M  V30 29 C 23.263 7.2235 61.2356 0
M  V30 30 N 22.8318 5.9381 61.1438 0
M  V30 31 C 23.19 3.6377 62.3542 0
M  V30 32 H 30.9239 13.2544 64.9768 0
M  V30 33 H 30.4321 10.3567 62.5835 0
M  V30 34 H 31.5999 9.5772 66.7902 0
M  V30 35 H 33.2934 11.805 67.5368 0
M  V30 36 H 28.7592 8.443 62.6918 0
M  V30 37 H 29.8452 7.7291 66.9361 0
M  V30 38 H 29.0442 14.2216 69.0095 0
M  V30 39 H 32.7345 12.0468 70.0207 0
M  V30 40 H 30.6675 13.3504 70.8049 0
M  V30 41 H 28.8295 6.0531 65.4039 0
M  V30 42 H 26.836 7.1381 63.6431 0
M  V30 43 H 26.512 7.3682 65.3949 0
M  V30 44 H 23.8418 1.9117 63.604 0
M  V30 45 H 22.9472 8.0088 60.5647 0
M  V30 46 H 22.4679 3.0785 61.7778 0
M  V30 END ATOM
M  V30 BEGIN BOND
M  V30 1 2 1 2
M  V30 2 2 1 3
M  V30 3 1 1 4
M  V30 4 1 1 5
M  V30 5 1 4 6
M  V30 6 2 5 7
M  V30 7 1 5 8
M  V30 8 2 6 9
M  V30 9 1 6 10
M  V30 10 1 7 11
M  V30 11 2 8 12
M  V30 12 1 9 13
M  V30 13 2 10 14
M  V30 14 2 11 15
M  V30 15 2 13 16
M  V30 16 1 15 17
M  V30 17 1 17 18
M  V30 18 1 18 19
M  V30 19 1 19 20
M  V30 20 2 19 21
M  V30 21 2 20 22
M  V30 22 1 20 23
M  V30 23 1 21 24
M  V30 24 1 21 25
M  V30 25 1 24 26
M  V30 26 2 24 27
M  V30 27 1 25 28
M  V30 28 1 26 29
M  V30 29 1 27 30
M  V30 30 1 27 31
M  V30 31 1 12 15
M  V30 32 1 14 16
M  V30 33 2 23 25
M  V30 34 2 28 31
M  V30 35 2 29 30
M  V30 36 1 4 32
M  V30 37 1 7 33
M  V30 38 1 8 34
M  V30 39 1 10 35
M  V30 40 1 11 36
M  V30 41 1 12 37
M  V30 42 1 13 38
M  V30 43 1 14 39
M  V30 44 1 16 40
M  V30 45 1 17 41
M  V30 46 1 18 42
M  V30 47 1 18 43
M  V30 48 1 28 44
M  V30 49 1 29 45
M  V30 50 1 31 46
M  V30 END BOND
M  V30 END CTAB
M  END
>  <Molecule Name>
MBXKBJLIESPLIK-HXTKINSTNA-N

>  <hs_clash>
9.0

>  <hs_total>
62.92515105786182

>  <Total Molweight>
449.514

>  <cLogP>
0.8559

>  <H-Acceptors>
8

>  <H-Donors>
2

>  <Polar Surface Area>
150.03

>  <Non-H Atoms>
31

>  <sp3-Atoms>
2

$$$$
FPKSFXFWECAIBR-SMPXVDCQNA-N
Actelion Java MolfileCreator 2.0

  0  0  0  0  0  0              0 V3000
M  V30 BEGIN CTAB
M  V30 COUNTS 23 26 0 0 0
M  V30 BEGIN ATOM
M  V30 1 O 24.9803 5.2413 62.1878 0
M  V30 2 C 25.8599 6.0929 62.2045 0
M  V30 3 N 26.9709 5.9646 63.0 0
M  V30 4 C 25.7353 7.3069 61.3401 0
M  V30 5 C 27.2681 4.8857 63.8929 0
M  V30 6 C 24.8362 7.3225 60.2323 0
M  V30 7 C 26.515 8.4714 61.6178 0
M  V30 8 C 28.368 4.8767 64.7858 0
M  V30 9 C 26.6056 3.7009 64.053 0
M  V30 10 C 24.7253 8.4721 59.4233 0
M  V30 11 C 26.3951 9.6156 60.8 0
M  V30 12 N 28.3491 3.7368 65.4499 0
M  V30 13 C 29.3554 5.9696 64.9428 0
M  V30 14 N 27.2539 2.9852 65.0058 0
M  V30 15 C 25.5012 9.6156 59.7065 0
M  V30 16 N 30.4388 5.9464 65.7834 0
M  V30 17 N 29.3211 7.1067 64.2836 0
M  V30 18 C 31.113 7.1402 65.6141 0
M  V30 19 C 30.3514 7.8909 64.6646 0
M  V30 20 C 32.2629 7.7225 66.2067 0
M  V30 21 C 30.8043 9.186 64.2641 0
M  V30 22 C 32.6847 9.0025 65.8038 0
M  V30 23 C 31.9431 9.735 64.8505 0
M  V30 END ATOM
M  V30 BEGIN BOND
M  V30 1 2 1 2
M  V30 2 1 2 3
M  V30 3 1 2 4
M  V30 4 1 3 5
M  V30 5 2 4 6
M  V30 6 1 4 7
M  V30 7 1 5 8
M  V30 8 2 5 9
M  V30 9 1 6 10
M  V30 10 2 7 11
M  V30 11 2 8 12
M  V30 12 1 8 13
M  V30 13 1 9 14
M  V30 14 2 10 15
M  V30 15 2 13 16
M  V30 16 1 13 17
M  V30 17 1 16 18
M  V30 18 1 17 19
M  V30 19 1 18 20
M  V30 20 1 19 21
M  V30 21 2 20 22
M  V30 22 2 21 23
M  V30 23 1 11 15
M  V30 24 1 12 14
M  V30 25 2 18 19
M  V30 26 1 22 23
M  V30 END BOND
M  V30 END CTAB
M  END
>  <Molecule Name>
FPKSFXFWECAIBR-SMPXVDCQNA-N

>  <hs_clash>
0.0

>  <hs_total>
61.45730117604674

>  <Total Molweight>
303.324

>  <cLogP>
2.0343

>  <H-Acceptors>
6

>  <H-Donors>
3

>  <Polar Surface Area>
86.46

>  <Non-H Atoms>
23

>  <sp3-Atoms>
0

$$$$
GNLAGGCSJGJECE-VCAGKCFANA-O
Actelion Java MolfileCreator 2.0

  0  0  0  0  0  0              0 V3000
M  V30 BEGIN CTAB
M  V30 COUNTS 54 56 0 0 0
M  V30 BEGIN ATOM
M  V30 1 Cl 25.0652 6.728 59.7799 0
M  V30 2 C 25.4958 7.9181 60.9901 0
M  V30 3 C 25.7403 7.5446 62.34 0
M  V30 4 C 25.6028 9.2786 60.5948 0
M  V30 5 N 25.6323 6.1521 62.7444 0
M  V30 6 C 26.0975 8.5528 63.2724 0
M  V30 7 C 25.9607 10.2673 61.5435 0
M  V30 8 C 26.4848 5.3487 63.5838 0
M  V30 9 C 26.2072 9.8932 62.8815 0
M  V30 10 N 27.5817 5.904 64.1035 0
M  V30 11 C 26.1645 3.9851 63.848 0
M  V30 12 Cl 26.6657 11.0793 64.076 0
M  V30 13 C 28.3871 5.197 64.8875 0
M  V30 14 C 27.0928 3.2983 64.7032 0
M  V30 15 N 28.1967 3.9156 65.2107 0
M  V30 16 N 29.5625 5.8459 65.4128 0
M  V30 17 C 30.117 7.1956 65.2828 0
M  V30 18 C 29.7225 7.9454 64.1322 0
M  V30 19 C 31.0166 7.7892 66.218 0
M  V30 20 C 30.1939 9.2519 63.925 0
M  V30 21 C 31.4944 9.1117 66.0082 0
M  V30 22 C 31.0887 9.8474 64.863 0
M  V30 23 O 31.546 11.1523 64.6525 0
M  V30 24 C 30.6611 12.2386 64.2346 0
M  V30 25 C 31.4213 13.5426 63.9401 0 CFG=1
M  V30 26 O 31.8331 14.0196 65.2057 0
M  V30 27 C 32.6714 13.4773 62.9707 0
M  V30 28 N 32.4167 13.3921 61.4688 0 CHG=1
M  V30 29 C 33.5904 13.765 60.6332 0
M  V30 30 C 31.2334 14.2015 61.0357 0
M  V30 31 H 25.4111 9.559 59.5699 0
M  V30 32 H 24.9989 5.6181 62.1846 0
M  V30 33 H 26.2877 8.2824 64.3004 0
M  V30 34 H 26.044 11.3019 61.2449 0
M  V30 35 H 25.2895 3.5045 63.4365 0
M  V30 36 H 26.9101 2.263 64.9507 0
M  V30 37 H 29.9645 5.3424 66.1775 0
M  V30 38 H 29.0518 7.5011 63.4118 0
M  V30 39 H 31.3352 7.2328 67.087 0
M  V30 40 H 29.8786 9.8068 63.0539 0
M  V30 41 H 32.1691 9.5592 66.7232 0
M  V30 42 H 30.1283 11.9282 63.3238 0
M  V30 43 H 29.9337 12.4291 65.0377 0
M  V30 44 H 30.7065 14.2533 63.4996 0
M  V30 45 H 31.1536 14.5736 65.5724 0
M  V30 46 H 33.2694 14.3832 63.1491 0
M  V30 47 H 33.2564 12.59 63.2532 0
M  V30 48 H 32.2052 12.4357 61.2681 0
M  V30 49 H 33.3259 13.6777 59.5693 0
M  V30 50 H 33.8832 14.802 60.8545 0
M  V30 51 H 34.4296 13.091 60.859 0
M  V30 52 H 31.0986 14.1024 59.9487 0
M  V30 53 H 30.3319 13.8379 61.5513 0
M  V30 54 H 31.3993 15.2588 61.2899 0
M  V30 END ATOM
M  V30 BEGIN BOND
M  V30 1 1 1 2
M  V30 2 2 2 3
M  V30 3 1 2 4
M  V30 4 1 3 5
M  V30 5 1 3 6
M  V30 6 2 4 7
M  V30 7 1 5 8
M  V30 8 2 6 9
M  V30 9 2 8 10
M  V30 10 1 8 11
M  V30 11 1 9 12
M  V30 12 1 10 13
M  V30 13 2 11 14
M  V30 14 2 13 15
M  V30 15 1 13 16
M  V30 16 1 16 17
M  V30 17 2 17 18
M  V30 18 1 17 19
M  V30 19 1 18 20
M  V30 20 2 19 21
M  V30 21 2 20 22
M  V30 22 1 22 23
M  V30 23 1 23 24
M  V30 24 1 24 25
M  V30 25 1 25 26
M  V30 26 1 25 27
M  V30 27 1 27 28
M  V30 28 1 28 29
M  V30 29 1 28 30
M  V30 30 1 7 9
M  V30 31 1 14 15
M  V30 32 1 21 22
M  V30 33 1 4 31
M  V30 34 1 5 32
M  V30 35 1 6 33
M  V30 36 1 7 34
M  V30 37 1 11 35
M  V30 38 1 14 36
M  V30 39 1 16 37
M  V30 40 1 18 38
M  V30 41 1 19 39
M  V30 42 1 20 40
M  V30 43 1 21 41
M  V30 44 1 24 42
M  V30 45 1 24 43
M  V30 46 1 25 44
M  V30 47 1 26 45
M  V30 48 1 27 46
M  V30 49 1 27 47
M  V30 50 1 28 48
M  V30 51 1 29 49
M  V30 52 1 29 50
M  V30 53 1 29 51
M  V30 54 1 30 52
M  V30 55 1 30 53
M  V30 56 1 30 54
M  V30 END BOND
M  V30 BEGIN COLLECTION
M  V30 MDLV30/STERAC1 ATOMS=(1 25)
M  V30 END COLLECTION
M  V30 END CTAB
M  END
>  <Molecule Name>
GNLAGGCSJGJECE-VCAGKCFANA-O

>  <hs_clash>
53.0

>  <hs_total>
60.73536978850781

>  <Total Molweight>
449.361

>  <cLogP>
2.7862

>  <H-Acceptors>
7

>  <H-Donors>
4

>  <Polar Surface Area>
83.74

>  <Non-H Atoms>
30

>  <sp3-Atoms>
8

$$$$
BDRDBXXWQDFXEC-CMJFTGLXNA-N
Actelion Java MolfileCreator 2.0

  0  0  0  0  0  0              0 V3000
M  V30 BEGIN CTAB
M  V30 COUNTS 37 39 0 0 0
M  V30 BEGIN ATOM
M  V30 1 F 22.841 6.71 62.4624 0
M  V30 2 C 23.7032 7.2706 61.5916 0
M  V30 3 C 24.9688 6.685 61.4391 0
M  V30 4 C 23.3239 8.4072 60.8685 0
M  V30 5 C 25.8529 7.3061 60.5331 0
M  V30 6 C 25.3838 5.4865 62.2586 0
M  V30 7 C 24.2214 8.9891 59.9746 0
M  V30 8 F 27.082 6.7919 60.3763 0
M  V30 9 C 25.4874 8.4336 59.8 0
M  V30 10 O 24.829 4.3828 62.1421 0
M  V30 11 N 26.3521 5.702 63.1622 0
M  V30 12 C 26.8826 4.7526 64.0172 0
M  V30 13 C 27.9623 4.9917 64.8724 0
M  V30 14 C 26.5377 3.4521 64.2112 0
M  V30 15 N 28.2616 3.9046 65.5358 0
M  V30 16 C 28.6964 6.2609 65.01 0
M  V30 17 N 27.373 2.9728 65.1084 0
M  V30 18 O 28.195 7.3096 64.6285 0
M  V30 19 N 29.955 6.1955 65.499 0
M  V30 20 C 30.8315 7.3132 65.5917 0
M  V30 21 C 31.2941 7.7453 66.8437 0
M  V30 22 C 31.2145 8.0102 64.4347 0
M  V30 23 C 32.1244 8.8405 66.9376 0
M  V30 24 C 32.0569 9.1022 64.5316 0
M  V30 25 C 32.4999 9.5006 65.7818 0
M  V30 26 F 33.319 10.5628 65.8789 0
M  V30 27 H 22.3398 8.8318 61.0026 0
M  V30 28 H 23.9359 9.8698 59.4183 0
M  V30 29 H 26.1815 8.8746 59.1001 0
M  V30 30 H 26.7223 6.6289 63.223 0
M  V30 31 H 25.7355 2.9171 63.7248 0
M  V30 32 H 27.3549 2.0288 65.4376 0
M  V30 33 H 30.2904 5.3082 65.8151 0
M  V30 34 H 30.9977 7.2171 67.7379 0
M  V30 35 H 30.8508 7.693 63.4686 0
M  V30 36 H 32.477 9.1792 67.9009 0
M  V30 37 H 32.3647 9.637 63.6454 0
M  V30 END ATOM
M  V30 BEGIN BOND
M  V30 1 1 1 2
M  V30 2 2 2 3
M  V30 3 1 2 4
M  V30 4 1 3 5
M  V30 5 1 3 6
M  V30 6 2 4 7
M  V30 7 1 5 8
M  V30 8 2 5 9
M  V30 9 2 6 10
M  V30 10 1 6 11
M  V30 11 1 11 12
M  V30 12 1 12 13
M  V30 13 2 12 14
M  V30 14 2 13 15
M  V30 15 1 13 16
M  V30 16 1 14 17
M  V30 17 2 16 18
M  V30 18 1 16 19
M  V30 19 1 19 20
M  V30 20 2 20 21
M  V30 21 1 20 22
M  V30 22 1 21 23
M  V30 23 2 22 24
M  V30 24 2 23 25
M  V30 25 1 25 26
M  V30 26 1 7 9
M  V30 27 1 15 17
M  V30 28 1 24 25
M  V30 29 1 4 27
M  V30 30 1 7 28
M  V30 31 1 9 29
M  V30 32 1 11 30
M  V30 33 1 14 31
M  V30 34 1 17 32
M  V30 35 1 19 33
M  V30 36 1 21 34
M  V30 37 1 22 35
M  V30 38 1 23 36
M  V30 39 1 24 37
M  V30 END BOND
M  V30 END CTAB
M  END
>  <Molecule Name>
BDRDBXXWQDFXEC-CMJFTGLXNA-N

>  <hs_clash>
0.0

>  <hs_total>
60.33141825779772

>  <Total Molweight>
360.294

>  <cLogP>
2.2046

>  <H-Acceptors>
6

>  <H-Donors>
3

>  <Polar Surface Area>
86.88

>  <Non-H Atoms>
26

>  <sp3-Atoms>
0

$$$$
KRIWIRSMQRQYJG-KERCIZIMNA-N
Actelion Java MolfileCreator 2.0

  0  0  0  0  0  0              0 V3000
M  V30 BEGIN CTAB
M  V30 COUNTS 55 57 0 0 0
M  V30 BEGIN ATOM
M  V30 1 O 24.3775 9.3421 60.2202 0
M  V30 2 C 25.7774 9.0182 60.5523 0 CFG=2
M  V30 3 C 25.9629 9.3498 62.0186 0 CFG=2
M  V30 4 C 26.117 7.5346 60.1547 0
M  V30 5 N 27.3554 9.0698 62.5206 0
M  V30 6 C 25.6822 10.8745 62.2303 0
M  V30 7 O 25.2509 6.7494 60.9235 0
M  V30 8 C 27.6214 7.9447 63.2178 0
M  V30 9 O 26.8737 11.6591 61.9712 0
M  V30 10 N 26.7123 6.9096 63.283 0
M  V30 11 C 28.9352 7.8207 63.8098 0
M  V30 12 C 27.0925 5.7974 63.9981 0
M  V30 13 C 29.289 6.6712 64.5512 0
M  V30 14 N 28.364 5.6506 64.6509 0
M  V30 15 C 26.4664 4.5828 64.3009 0
M  V30 16 N 30.4982 6.489 65.1384 0
M  V30 17 N 28.4737 4.5011 65.1717 0
M  V30 18 C 27.3281 3.828 65.007 0
M  V30 19 C 25.0804 4.1616 63.8781 0
M  V30 20 C 31.6364 7.444 64.9326 0
M  V30 21 C 25.0683 3.8498 62.3583 0
M  V30 22 C 23.968 5.2418 64.1358 0
M  V30 23 C 31.5861 8.516 66.0007 0
M  V30 24 C 31.597 8.1222 67.3447 0
M  V30 25 C 31.538 9.8581 65.6576 0
M  V30 26 C 31.5518 9.068 68.3624 0
M  V30 27 C 31.5038 10.7903 66.7031 0
M  V30 28 C 31.496 10.4379 68.0309 0
M  V30 29 H 24.1909 9.0677 59.3302 0
M  V30 30 H 26.4375 9.675 59.9675 0
M  V30 31 H 25.239 8.7747 62.6143 0
M  V30 32 H 25.9382 7.3712 59.0819 0
M  V30 33 H 27.1651 7.3009 60.3919 0
M  V30 34 H 28.0095 9.8248 62.563 0
M  V30 35 H 24.8845 11.193 61.5433 0
M  V30 36 H 25.3598 11.0411 63.2688 0
M  V30 37 H 24.437 6.6195 60.4513 0
M  V30 38 H 26.8024 12.0719 61.1187 0
M  V30 39 H 29.6542 8.6164 63.6837 0
M  V30 40 H 30.6353 5.6925 65.7273 0
M  V30 41 H 27.1273 2.8356 65.3817 0
M  V30 42 H 24.8029 3.2471 64.4229 0
M  V30 43 H 32.5897 6.9003 65.0016 0
M  V30 44 H 31.5505 7.9099 63.94 0
M  V30 45 H 24.0566 3.5433 62.0546 0
M  V30 46 H 25.3629 4.7491 61.7975 0
M  V30 47 H 25.7773 3.0364 62.1458 0
M  V30 48 H 22.9948 4.8542 63.8001 0
M  V30 49 H 23.9205 5.4703 65.2107 0
M  V30 50 H 24.21 6.1579 63.5769 0
M  V30 51 H 31.6407 7.0723 67.5932 0
M  V30 52 H 31.5271 10.1731 64.625 0
M  V30 53 H 31.5593 8.7573 69.3967 0
M  V30 54 H 31.4823 11.8405 66.4522 0
M  V30 55 H 31.4482 11.1919 68.8027 0
M  V30 END ATOM
M  V30 BEGIN BOND
M  V30 1 1 1 2
M  V30 2 1 2 3
M  V30 3 1 2 4
M  V30 4 1 3 5
M  V30 5 1 3 6
M  V30 6 1 4 7
M  V30 7 1 5 8
M  V30 8 1 6 9
M  V30 9 2 8 10
M  V30 10 1 8 11
M  V30 11 1 10 12
M  V30 12 2 11 13
M  V30 13 1 12 14
M  V30 14 2 12 15
M  V30 15 1 13 16
M  V30 16 1 14 17
M  V30 17 1 15 18
M  V30 18 1 15 19
M  V30 19 1 16 20
M  V30 20 1 19 21
M  V30 21 1 19 22
M  V30 22 1 20 23
M  V30 23 2 23 24
M  V30 24 1 23 25
M  V30 25 1 24 26
M  V30 26 2 25 27
M  V30 27 2 26 28
M  V30 28 1 13 14
M  V30 29 2 17 18
M  V30 30 1 27 28
M  V30 31 1 1 29
M  V30 32 1 2 30
M  V30 33 1 3 31
M  V30 34 1 4 32
M  V30 35 1 4 33
M  V30 36 1 5 34
M  V30 37 1 6 35
M  V30 38 1 6 36
M  V30 39 1 7 37
M  V30 40 1 9 38
M  V30 41 1 11 39
M  V30 42 1 16 40
M  V30 43 1 18 41
M  V30 44 1 19 42
M  V30 45 1 20 43
M  V30 46 1 20 44
M  V30 47 1 21 45
M  V30 48 1 21 46
M  V30 49 1 21 47
M  V30 50 1 22 48
M  V30 51 1 22 49
M  V30 52 1 22 50
M  V30 53 1 24 51
M  V30 54 1 25 52
M  V30 55 1 26 53
M  V30 56 1 27 54
M  V30 57 1 28 55
M  V30 END BOND
M  V30 BEGIN COLLECTION
M  V30 MDLV30/STERAC1 ATOMS=(2 2 3)
M  V30 END COLLECTION
M  V30 END CTAB
M  END
>  <Molecule Name>
KRIWIRSMQRQYJG-KERCIZIMNA-N

>  <hs_clash>
0.0

>  <hs_total>
60.192701001804764

>  <Total Molweight>
385.466

>  <cLogP>
0.509

>  <H-Acceptors>
8

>  <H-Donors>
5

>  <Polar Surface Area>
114.94

>  <Non-H Atoms>
28

>  <sp3-Atoms>
11

$$$$
GNLAGGCSJGJECE-LIDDBIMVNA-O
Actelion Java MolfileCreator 2.0

  0  0  0  0  0  0              0 V3000
M  V30 BEGIN CTAB
M  V30 COUNTS 54 56 0 0 0
M  V30 BEGIN ATOM
M  V30 1 Cl 25.0478 6.7233 59.7383 0
M  V30 2 C 25.4782 7.9134 60.9485 0
M  V30 3 C 25.7227 7.5399 62.2984 0
M  V30 4 C 25.5854 9.2738 60.5533 0
M  V30 5 N 25.6147 6.1474 62.7028 0
M  V30 6 C 26.0798 8.5481 63.2308 0
M  V30 7 C 25.9432 10.2627 61.502 0
M  V30 8 C 26.4672 5.344 63.5422 0
M  V30 9 C 26.1897 9.8883 62.8399 0
M  V30 10 N 27.5642 5.8993 64.0616 0
M  V30 11 C 26.147 3.9807 63.8063 0
M  V30 12 Cl 26.6481 11.0745 64.0344 0
M  V30 13 C 28.3697 5.1925 64.8457 0
M  V30 14 C 27.0753 3.2937 64.6614 0
M  V30 15 N 28.1793 3.9112 65.1689 0
M  V30 16 N 29.5451 5.8414 65.371 0
M  V30 17 C 30.0996 7.191 65.2411 0
M  V30 18 C 29.705 7.9409 64.0905 0
M  V30 19 C 30.9992 7.7846 66.1762 0
M  V30 20 C 30.1765 9.2474 63.8832 0
M  V30 21 C 31.4771 9.107 65.9663 0
M  V30 22 C 31.0712 9.8428 64.8212 0
M  V30 23 O 31.5287 11.1477 64.6109 0
M  V30 24 C 30.6435 12.2341 64.1928 0
M  V30 25 C 31.4129 13.4776 63.6933 0 CFG=1
M  V30 26 O 32.6684 13.587 64.3607 0
M  V30 27 C 30.6275 14.8164 63.8199 0
M  V30 28 N 31.2079 15.8694 64.72 0 CHG=1
M  V30 29 C 30.9567 15.6462 66.1742 0
M  V30 30 C 30.7339 17.2251 64.3191 0
M  V30 31 H 25.3936 9.5545 59.5283 0
M  V30 32 H 24.9813 5.6134 62.1429 0
M  V30 33 H 26.2702 8.2777 64.2588 0
M  V30 34 H 26.0266 11.2971 61.2034 0
M  V30 35 H 25.2721 3.4998 63.3947 0
M  V30 36 H 26.8927 2.2587 64.9091 0
M  V30 37 H 29.947 5.3379 66.1357 0
M  V30 38 H 29.0344 7.4966 63.3702 0
M  V30 39 H 31.3179 7.2281 67.0451 0
M  V30 40 H 29.8611 9.8023 63.0121 0
M  V30 41 H 32.1516 9.5544 66.6813 0
M  V30 42 H 29.9998 11.8692 63.3792 0
M  V30 43 H 30.0197 12.5282 65.0499 0
M  V30 44 H 31.6041 13.3238 62.6212 0
M  V30 45 H 33.1601 12.7829 64.2449 0
M  V30 46 H 30.5476 15.2499 62.8123 0
M  V30 47 H 29.6224 14.5767 64.1968 0
M  V30 48 H 32.1988 15.8533 64.5873 0
M  V30 49 H 31.4143 16.4605 66.7552 0
M  V30 50 H 29.8727 15.6277 66.3603 0
M  V30 51 H 31.3975 14.6858 66.4789 0
M  V30 52 H 31.1699 17.98 64.9899 0
M  V30 53 H 31.0449 17.4308 63.2843 0
M  V30 54 H 29.6366 17.2648 64.3869 0
M  V30 END ATOM
M  V30 BEGIN BOND
M  V30 1 1 1 2
M  V30 2 2 2 3
M  V30 3 1 2 4
M  V30 4 1 3 5
M  V30 5 1 3 6
M  V30 6 2 4 7
M  V30 7 1 5 8
M  V30 8 2 6 9
M  V30 9 2 8 10
M  V30 10 1 8 11
M  V30 11 1 9 12
M  V30 12 1 10 13
M  V30 13 2 11 14
M  V30 14 2 13 15
M  V30 15 1 13 16
M  V30 16 1 16 17
M  V30 17 2 17 18
M  V30 18 1 17 19
M  V30 19 1 18 20
M  V30 20 2 19 21
M  V30 21 2 20 22
M  V30 22 1 22 23
M  V30 23 1 23 24
M  V30 24 1 24 25
M  V30 25 1 25 26
M  V30 26 1 25 27
M  V30 27 1 27 28
M  V30 28 1 28 29
M  V30 29 1 28 30
M  V30 30 1 7 9
M  V30 31 1 14 15
M  V30 32 1 21 22
M  V30 33 1 4 31
M  V30 34 1 5 32
M  V30 35 1 6 33
M  V30 36 1 7 34
M  V30 37 1 11 35
M  V30 38 1 14 36
M  V30 39 1 16 37
M  V30 40 1 18 38
M  V30 41 1 19 39
M  V30 42 1 20 40
M  V30 43 1 21 41
M  V30 44 1 24 42
M  V30 45 1 24 43
M  V30 46 1 25 44
M  V30 47 1 26 45
M  V30 48 1 27 46
M  V30 49 1 27 47
M  V30 50 1 28 48
M  V30 51 1 29 49
M  V30 52 1 29 50
M  V30 53 1 29 51
M  V30 54 1 30 52
M  V30 55 1 30 53
M  V30 56 1 30 54
M  V30 END BOND
M  V30 BEGIN COLLECTION
M  V30 MDLV30/STERAC1 ATOMS=(1 25)
M  V30 END COLLECTION
M  V30 END CTAB
M  END
>  <Molecule Name>
GNLAGGCSJGJECE-LIDDBIMVNA-O

>  <hs_clash>
21.0

>  <hs_total>
59.358915519734346

>  <Total Molweight>
449.361

>  <cLogP>
2.7862

>  <H-Acceptors>
7

>  <H-Donors>
4

>  <Polar Surface Area>
83.74

>  <Non-H Atoms>
30

>  <sp3-Atoms>
8

$$$$
IWOOJEZSDPRYAZ-KCSKSQBONA-O
Actelion Java MolfileCreator 2.0

  0  0  0  0  0  0              0 V3000
M  V30 BEGIN CTAB
M  V30 COUNTS 50 54 0 0 0
M  V30 BEGIN ATOM
M  V30 1 O 23.2322 6.2015 60.318 0
M  V30 2 C 24.3261 6.3592 60.8948 0
M  V30 3 N 25.2654 7.3541 60.7211 0
M  V30 4 C 24.8835 5.4563 61.9462 0
M  V30 5 C 26.4662 7.2465 61.5734 0 CFG=2
M  V30 6 C 24.9489 8.7086 60.288 0
M  V30 7 C 26.1643 5.9605 62.4092 0
M  V30 8 C 24.3226 4.27 62.487 0
M  V30 9 C 26.5306 8.6577 62.1268 0
M  V30 10 C 26.098 9.5089 60.9478 0
M  V30 11 C 26.8703 5.2621 63.4317 0
M  V30 12 C 25.0545 3.569 63.5001 0
M  V30 13 N 28.1267 5.6909 63.9925 0
M  V30 14 C 26.2972 4.0613 63.9592 0
M  V30 15 C 28.9385 5.0676 64.8552 0
M  V30 16 O 28.6518 3.9341 65.2868 0
M  V30 17 N 30.0605 5.7038 65.1643 0
M  V30 18 C 30.3428 7.0 64.7609 0
M  V30 19 N 29.7199 7.6421 63.722 0
M  V30 20 C 31.254 7.8284 65.3286 0
M  V30 21 N 30.2185 8.8865 63.6232 0
M  V30 22 C 31.1694 9.0315 64.5976 0
M  V30 23 C 31.9558 10.2969 64.8507 0 CFG=1
M  V30 24 N 33.3904 10.3168 64.8043 0 CHG=1
M  V30 25 C 31.5276 11.5494 64.0559 0
M  V30 26 C 33.7745 11.7419 65.0776 0
M  V30 27 C 32.6278 12.5969 64.4504 0
M  V30 28 H 27.3518 7.0608 60.9481 0
M  V30 29 H 24.9726 8.7976 59.1918 0
M  V30 30 H 23.9657 9.0324 60.6607 0
M  V30 31 H 23.3665 3.9042 62.1429 0
M  V30 32 H 25.8427 8.7808 62.9766 0
M  V30 33 H 27.553 8.9116 62.4431 0
M  V30 34 H 25.7405 10.4918 61.2893 0
M  V30 35 H 26.9302 9.6466 60.2421 0
M  V30 36 H 24.6531 2.6569 63.9167 0
M  V30 37 H 28.4397 6.5916 63.6911 0
M  V30 38 H 26.8276 3.518 64.7271 0
M  V30 39 H 30.7396 5.2224 65.7186 0
M  V30 40 H 31.9055 7.6131 66.1628 0
M  V30 41 H 29.9444 9.5811 62.9581 0
M  V30 42 H 31.7091 10.5561 65.8911 0
M  V30 43 H 33.772 9.7112 65.5024 0
M  V30 44 H 33.7156 10.0331 63.9023 0
M  V30 45 H 31.5346 11.3546 62.9734 0
M  V30 46 H 30.5271 11.8907 64.3606 0
M  V30 47 H 33.8438 11.9232 66.1604 0
M  V30 48 H 34.738 11.9805 64.6035 0
M  V30 49 H 32.9867 13.1371 63.5622 0
M  V30 50 H 32.2342 13.317 65.1833 0
M  V30 END ATOM
M  V30 BEGIN BOND
M  V30 1 2 1 2
M  V30 2 1 2 3
M  V30 3 1 2 4
M  V30 4 1 3 5
M  V30 5 1 3 6
M  V30 6 2 4 7
M  V30 7 1 4 8
M  V30 8 1 5 9
M  V30 9 1 6 10
M  V30 10 1 7 11
M  V30 11 2 8 12
M  V30 12 1 11 13
M  V30 13 2 11 14
M  V30 14 1 13 15
M  V30 15 2 15 16
M  V30 16 1 15 17
M  V30 17 1 17 18
M  V30 18 2 18 19
M  V30 19 1 18 20
M  V30 20 1 19 21
M  V30 21 2 20 22
M  V30 22 1 22 23
M  V30 23 1 23 24
M  V30 24 1 23 25
M  V30 25 1 24 26
M  V30 26 1 25 27
M  V30 27 1 5 7
M  V30 28 1 9 10
M  V30 29 1 12 14
M  V30 30 1 21 22
M  V30 31 1 26 27
M  V30 32 1 5 28
M  V30 33 1 6 29
M  V30 34 1 6 30
M  V30 35 1 8 31
M  V30 36 1 9 32
M  V30 37 1 9 33
M  V30 38 1 10 34
M  V30 39 1 10 35
M  V30 40 1 12 36
M  V30 41 1 13 37
M  V30 42 1 14 38
M  V30 43 1 17 39
M  V30 44 1 20 40
M  V30 45 1 21 41
M  V30 46 1 23 42
M  V30 47 1 24 43
M  V30 48 1 24 44
M  V30 49 1 25 45
M  V30 50 1 25 46
M  V30 51 1 26 47
M  V30 52 1 26 48
M  V30 53 1 27 49
M  V30 54 1 27 50
M  V30 END BOND
M  V30 BEGIN COLLECTION
M  V30 MDLV30/STERAC1 ATOMS=(2 5 23)
M  V30 END COLLECTION
M  V30 END CTAB
M  END
>  <Molecule Name>
IWOOJEZSDPRYAZ-KCSKSQBONA-O

>  <hs_clash>
3.0

>  <hs_total>
59.222082469511875

>  <Total Molweight>
367.432

>  <cLogP>
1.3009

>  <H-Acceptors>
8

>  <H-Donors>
4

>  <Polar Surface Area>
106.73

>  <Non-H Atoms>
27

>  <sp3-Atoms>
9

$$$$
KLVYMYQTRZCMLE-KRIMEHBDNA-N
Actelion Java MolfileCreator 2.0

  0  0  0  0  0  0              0 V3000
M  V30 BEGIN CTAB
M  V30 COUNTS 23 26 0 0 0
M  V30 BEGIN ATOM
M  V30 1 O 22.9387 6.5168 60.9238 0
M  V30 2 C 23.9781 6.5975 61.5359 0
M  V30 3 N 24.7948 7.6652 61.6542 0
M  V30 4 C 24.5952 5.5248 62.3098 0
M  V30 5 C 25.9849 7.4417 62.4715 0 CFG=2
M  V30 6 C 24.934 8.6856 60.6062 0
M  V30 7 C 25.8129 5.9927 62.8918 0
M  V30 8 C 24.1572 4.2046 62.516 0
M  V30 9 C 27.0618 7.7892 61.4327 0
M  V30 10 C 26.445 8.9565 60.6379 0
M  V30 11 C 26.5977 5.1371 63.6982 0
M  V30 12 C 24.936 3.3674 63.3037 0
M  V30 13 N 27.8217 5.6432 64.2849 0
M  V30 14 C 26.1326 3.8194 63.8846 0
M  V30 15 C 28.7295 5.1096 65.0837 0
M  V30 16 O 28.6635 3.9271 65.4325 0
M  V30 17 N 29.7148 5.9051 65.4768 0
M  V30 18 C 30.1173 7.2139 65.0964 0
M  V30 19 N 29.5373 7.7029 63.9997 0
M  V30 20 C 31.0516 7.9748 65.7993 0
M  V30 21 C 29.8054 8.9162 63.5214 0
M  V30 22 C 31.3551 9.2669 65.3172 0
M  V30 23 C 30.7238 9.7493 64.162 0
M  V30 END ATOM
M  V30 BEGIN BOND
M  V30 1 2 1 2
M  V30 2 1 2 3
M  V30 3 1 2 4
M  V30 4 1 3 5
M  V30 5 1 3 6
M  V30 6 2 4 7
M  V30 7 1 4 8
M  V30 8 1 5 9
M  V30 9 1 6 10
M  V30 10 1 7 11
M  V30 11 2 8 12
M  V30 12 1 11 13
M  V30 13 2 11 14
M  V30 14 1 13 15
M  V30 15 2 15 16
M  V30 16 1 15 17
M  V30 17 1 17 18
M  V30 18 2 18 19
M  V30 19 1 18 20
M  V30 20 1 19 21
M  V30 21 2 20 22
M  V30 22 2 21 23
M  V30 23 1 5 7
M  V30 24 1 9 10
M  V30 25 1 12 14
M  V30 26 1 22 23
M  V30 END BOND
M  V30 BEGIN COLLECTION
M  V30 MDLV30/STERAC1 ATOMS=(1 5)
M  V30 END COLLECTION
M  V30 END CTAB
M  END
>  <Molecule Name>
KLVYMYQTRZCMLE-KRIMEHBDNA-N

>  <hs_clash>
0.0

>  <hs_total>
59.05401070925491

>  <Total Molweight>
308.340

>  <cLogP>
2.3544

>  <H-Acceptors>
6

>  <H-Donors>
2

>  <Polar Surface Area>
74.33

>  <Non-H Atoms>
23

>  <sp3-Atoms>
4

$$$$
XQKJVNGGVLHNLA-HXTKINSTNA-N
Actelion Java MolfileCreator 2.0

  0  0  0  0  0  0              0 V3000
M  V30 BEGIN CTAB
M  V30 COUNTS 45 47 0 0 0
M  V30 BEGIN ATOM
M  V30 1 F 24.2542 4.5289 62.2374 0
M  V30 2 C 24.5368 4.7326 63.4998 0
M  V30 3 F 25.0099 3.6325 64.0721 0
M  V30 4 F 23.5099 5.1825 64.133 0
M  V30 5 C 25.5544 5.8224 63.5726 0
M  V30 6 N 25.4579 6.8992 62.7303 0
M  V30 7 N 26.5869 5.6599 64.4432 0
M  V30 8 C 26.4549 7.8508 62.7479 0
M  V30 9 C 27.6398 6.5511 64.5541 0
M  V30 10 N 26.1593 8.8258 61.7346 0
M  V30 11 C 27.6219 7.7676 63.6462 0
M  V30 12 C 28.7244 6.3166 65.5099 0
M  V30 13 C 25.267 9.0645 60.5691 0
M  V30 14 C 28.7495 8.701 63.7926 0
M  V30 15 C 29.8149 7.2575 65.6057 0
M  V30 16 C 25.4209 7.8648 59.5793 0
M  V30 17 C 23.7964 9.09 61.039 0
M  V30 18 C 25.6501 10.4239 59.9378 0
M  V30 19 C 29.8709 8.4847 64.774 0
M  V30 20 C 30.9993 9.4681 65.0268 0
M  V30 21 C 31.6377 10.1967 63.9407 0
M  V30 22 C 31.5634 9.7333 66.3753 0
M  V30 23 C 32.7607 11.0759 64.2285 0
M  V30 24 C 32.7041 10.5902 66.6703 0
M  V30 25 N 33.2756 11.7806 63.1522 0
M  V30 26 C 33.3334 11.275 65.5585 0
M  V30 27 H 26.342 9.7214 62.1403 0
M  V30 28 H 28.708 5.441 66.142 0
M  V30 29 H 28.7743 9.5815 63.1676 0
M  V30 30 H 30.6147 7.0619 66.3048 0
M  V30 31 H 24.7681 8.0217 58.7082 0
M  V30 32 H 26.467 7.7969 59.2463 0
M  V30 33 H 25.1364 6.9318 60.0876 0
M  V30 34 H 23.138 9.2668 60.1758 0
M  V30 35 H 23.5425 8.1251 61.5021 0
M  V30 36 H 23.6603 9.8966 61.7747 0
M  V30 37 H 25.0017 10.6225 59.0718 0
M  V30 38 H 25.5215 11.2234 60.6826 0
M  V30 39 H 26.6998 10.3934 59.6108 0
M  V30 40 H 31.28 10.0856 62.9278 0
M  V30 41 H 31.0847 9.2471 67.2124 0
M  V30 42 H 33.0673 10.7109 67.6803 0
M  V30 43 H 34.0381 12.3498 63.4599 0
M  V30 44 H 32.7608 11.5513 62.3262 0
M  V30 45 H 34.1945 11.9097 65.7076 0
M  V30 END ATOM
M  V30 BEGIN BOND
M  V30 1 1 1 2
M  V30 2 1 2 3
M  V30 3 1 2 4
M  V30 4 1 2 5
M  V30 5 1 5 6
M  V30 6 2 5 7
M  V30 7 2 6 8
M  V30 8 1 7 9
M  V30 9 1 8 10
M  V30 10 1 8 11
M  V30 11 2 9 12
M  V30 12 1 10 13
M  V30 13 2 11 14
M  V30 14 1 12 15
M  V30 15 1 13 16
M  V30 16 1 13 17
M  V30 17 1 13 18
M  V30 18 1 14 19
M  V30 19 1 19 20
M  V30 20 2 20 21
M  V30 21 1 20 22
M  V30 22 1 21 23
M  V30 23 2 22 24
M  V30 24 1 23 25
M  V30 25 2 23 26
M  V30 26 1 9 11
M  V30 27 2 15 19
M  V30 28 1 24 26
M  V30 29 1 10 27
M  V30 30 1 12 28
M  V30 31 1 14 29
M  V30 32 1 15 30
M  V30 33 1 16 31
M  V30 34 1 16 32
M  V30 35 1 16 33
M  V30 36 1 17 34
M  V30 37 1 17 35
M  V30 38 1 17 36
M  V30 39 1 18 37
M  V30 40 1 18 38
M  V30 41 1 18 39
M  V30 42 1 21 40
M  V30 43 1 22 41
M  V30 44 1 24 42
M  V30 45 1 25 43
M  V30 46 1 25 44
M  V30 47 1 26 45
M  V30 END BOND
M  V30 END CTAB
M  END
>  <Molecule Name>
XQKJVNGGVLHNLA-HXTKINSTNA-N

>  <hs_clash>
10.0

>  <hs_total>
57.36762573661409

>  <Total Molweight>
360.382

>  <cLogP>
4.2776

>  <H-Acceptors>
4

>  <H-Donors>
2

>  <Polar Surface Area>
63.83

>  <Non-H Atoms>
26

>  <sp3-Atoms>
5

$$$$
OTMLAWRVLMYMDF-YSFRZULJNA-N
Actelion Java MolfileCreator 2.0

  0  0  0  0  0  0              0 V3000
M  V30 BEGIN CTAB
M  V30 COUNTS 37 39 0 0 0
M  V30 BEGIN ATOM
M  V30 1 S 27.295 7.7595 62.234 0
M  V30 2 C 25.8928 8.0423 61.2241 0
M  V30 3 C 26.6587 6.1087 62.5661 0
M  V30 4 N 25.1197 7.0012 61.2019 0
M  V30 5 N 25.5796 9.1357 60.541 0
M  V30 6 C 27.4979 5.2897 63.4814 0
M  V30 7 C 25.4768 5.911 61.914 0
M  V30 8 C 26.3526 10.3783 60.4744 0
M  V30 9 N 28.611 5.8797 63.9767 0
M  V30 10 C 27.1535 3.9744 63.8229 0
M  V30 11 C 24.5247 4.7535 61.845 0
M  V30 12 C 29.4364 5.2113 64.8359 0
M  V30 13 C 28.048 3.3564 64.6991 0
M  V30 14 N 29.1844 3.9209 65.2272 0
M  V30 15 N 30.5323 5.8 65.3322 0
M  V30 16 C 31.0416 7.0795 65.1068 0
M  V30 17 C 30.4273 7.998 64.2362 0
M  V30 18 C 32.2292 7.543 65.746 0
M  V30 19 C 30.8985 9.264 63.985 0
M  V30 20 C 32.7288 8.8454 65.5037 0
M  V30 21 C 32.0555 9.7099 64.6142 0
M  V30 22 O 32.4763 11.0028 64.314 0
M  V30 23 H 24.7277 9.109 60.0179 0
M  V30 24 H 25.8327 11.1 59.8269 0
M  V30 25 H 26.4554 10.8008 61.4849 0
M  V30 26 H 27.3501 10.1675 60.0616 0
M  V30 27 H 26.2714 3.4816 63.4412 0
M  V30 28 H 23.6733 5.0159 61.1997 0
M  V30 29 H 25.043 3.8768 61.4299 0
M  V30 30 H 24.1592 4.5186 62.856 0
M  V30 31 H 27.8258 2.3399 64.9889 0
M  V30 32 H 30.9112 5.3454 66.1384 0
M  V30 33 H 29.5241 7.6875 63.7317 0
M  V30 34 H 32.7557 6.8899 66.426 0
M  V30 35 H 30.3713 9.9116 63.3 0
M  V30 36 H 33.6279 9.1785 66.0011 0
M  V30 37 H 31.8737 11.3966 63.6938 0
M  V30 END ATOM
M  V30 BEGIN BOND
M  V30 1 1 1 2
M  V30 2 1 1 3
M  V30 3 2 2 4
M  V30 4 1 2 5
M  V30 5 1 3 6
M  V30 6 2 3 7
M  V30 7 1 5 8
M  V30 8 2 6 9
M  V30 9 1 6 10
M  V30 10 1 7 11
M  V30 11 1 9 12
M  V30 12 2 10 13
M  V30 13 2 12 14
M  V30 14 1 12 15
M  V30 15 1 15 16
M  V30 16 2 16 17
M  V30 17 1 16 18
M  V30 18 1 17 19
M  V30 19 2 18 20
M  V30 20 2 19 21
M  V30 21 1 21 22
M  V30 22 1 4 7
M  V30 23 1 13 14
M  V30 24 1 20 21
M  V30 25 1 5 23
M  V30 26 1 8 24
M  V30 27 1 8 25
M  V30 28 1 8 26
M  V30 29 1 10 27
M  V30 30 1 11 28
M  V30 31 1 11 29
M  V30 32 1 11 30
M  V30 33 1 13 31
M  V30 34 1 15 32
M  V30 35 1 17 33
M  V30 36 1 18 34
M  V30 37 1 19 35
M  V30 38 1 20 36
M  V30 39 1 22 37
M  V30 END BOND
M  V30 END CTAB
M  END
>  <Molecule Name>
OTMLAWRVLMYMDF-YSFRZULJNA-N

>  <hs_clash>
0.0

>  <hs_total>
56.78473507579704

>  <Total Molweight>
313.384

>  <cLogP>
3.3101

>  <H-Acceptors>
6

>  <H-Donors>
3

>  <Polar Surface Area>
111.2

>  <Non-H Atoms>
22

>  <sp3-Atoms>
3

$$$$
MEIJADBULOETOV-SKQPGPIJNA-O
Actelion Java MolfileCreator 2.0

  0  0  0  0  0  0              0 V3000
M  V30 BEGIN CTAB
M  V30 COUNTS 54 56 0 0 0
M  V30 BEGIN ATOM
M  V30 1 Br 25.1721 3.3621 63.2187 0
M  V30 2 C 26.7315 4.2216 63.9138 0
M  V30 3 C 27.0699 5.5605 63.5797 0
M  V30 4 C 27.6221 3.5424 64.8092 0
M  V30 5 N 28.1705 6.1186 64.0876 0
M  V30 6 N 26.2109 6.2995 62.6653 0
M  V30 7 N 28.7276 4.1564 65.2992 0
M  V30 8 C 28.9507 5.4258 64.92 0
M  V30 9 C 26.2224 7.6385 62.0899 0
M  V30 10 N 30.1336 6.0672 65.4601 0
M  V30 11 C 25.7085 7.7889 60.7674 0
M  V30 12 C 26.7261 8.793 62.7734 0
M  V30 13 C 30.7212 7.4017 65.3172 0
M  V30 14 C 25.6924 9.0642 60.139 0
M  V30 15 C 26.7091 10.0669 62.1419 0
M  V30 16 C 31.6869 7.8652 66.2475 0
M  V30 17 C 30.3093 8.2507 64.234 0
M  V30 18 C 26.1921 10.1987 60.8268 0
M  V30 19 C 32.2406 9.1657 66.1043 0
M  V30 20 C 30.8568 9.5442 64.0891 0
M  V30 21 C 31.8275 10.0176 65.0222 0
M  V30 22 O 32.4054 11.3104 64.906 0
M  V30 23 C 31.5485 12.3676 64.3352 0
M  V30 24 C 32.4118 13.578 63.8771 0 CFG=1
M  V30 25 O 33.1169 14.0757 65.0107 0
M  V30 26 C 33.4387 13.1414 62.7685 0
M  V30 27 N 33.2456 13.6582 61.3445 0 CHG=1
M  V30 28 C 31.8436 13.7588 60.8366 0
M  V30 29 C 34.1111 14.8044 60.9434 0
M  V30 30 H 27.4085 2.5242 65.0986 0
M  V30 31 H 25.2641 6.0014 62.7882 0
M  V30 32 H 30.7826 5.4068 65.837 0
M  V30 33 H 25.3281 6.927 60.2396 0
M  V30 34 H 27.1208 8.6951 63.774 0
M  V30 35 H 25.2997 9.1687 59.1383 0
M  V30 36 H 27.089 10.9338 62.6628 0
M  V30 37 H 32.0004 7.2306 67.0633 0
M  V30 38 H 29.5751 7.8971 63.5253 0
M  V30 39 H 26.1794 11.167 60.3483 0
M  V30 40 H 32.9763 9.5167 66.8131 0
M  V30 41 H 30.541 10.1757 63.2718 0
M  V30 42 H 31.0027 11.9636 63.4698 0
M  V30 43 H 30.8299 12.7031 65.0978 0
M  V30 44 H 31.7494 14.3512 63.4601 0
M  V30 45 H 32.5 14.4505 65.6289 0
M  V30 46 H 34.4336 13.4726 63.101 0
M  V30 47 H 33.4149 12.0428 62.7205 0
M  V30 48 H 33.6173 12.9078 60.7981 0
M  V30 49 H 31.8532 14.1422 59.8057 0
M  V30 50 H 31.3753 12.7635 60.8534 0
M  V30 51 H 31.2698 14.4448 61.4774 0
M  V30 52 H 33.8855 15.0889 59.9049 0
M  V30 53 H 33.9181 15.6597 61.6079 0
M  V30 54 H 35.168 14.5104 61.0216 0
M  V30 END ATOM
M  V30 BEGIN BOND
M  V30 1 1 1 2
M  V30 2 2 2 3
M  V30 3 1 2 4
M  V30 4 1 3 5
M  V30 5 1 3 6
M  V30 6 2 4 7
M  V30 7 2 5 8
M  V30 8 1 6 9
M  V30 9 1 8 10
M  V30 10 2 9 11
M  V30 11 1 9 12
M  V30 12 1 10 13
M  V30 13 1 11 14
M  V30 14 2 12 15
M  V30 15 2 13 16
M  V30 16 1 13 17
M  V30 17 2 14 18
M  V30 18 1 16 19
M  V30 19 2 17 20
M  V30 20 2 19 21
M  V30 21 1 21 22
M  V30 22 1 22 23
M  V30 23 1 23 24
M  V30 24 1 24 25
M  V30 25 1 24 26
M  V30 26 1 26 27
M  V30 27 1 27 28
M  V30 28 1 27 29
M  V30 29 1 7 8
M  V30 30 1 15 18
M  V30 31 1 20 21
M  V30 32 1 4 30
M  V30 33 1 6 31
M  V30 34 1 10 32
M  V30 35 1 11 33
M  V30 36 1 12 34
M  V30 37 1 14 35
M  V30 38 1 15 36
M  V30 39 1 16 37
M  V30 40 1 17 38
M  V30 41 1 18 39
M  V30 42 1 19 40
M  V30 43 1 20 41
M  V30 44 1 23 42
M  V30 45 1 23 43
M  V30 46 1 24 44
M  V30 47 1 25 45
M  V30 48 1 26 46
M  V30 49 1 26 47
M  V30 50 1 27 48
M  V30 51 1 28 49
M  V30 52 1 28 50
M  V30 53 1 28 51
M  V30 54 1 29 52
M  V30 55 1 29 53
M  V30 56 1 29 54
M  V30 END BOND
M  V30 BEGIN COLLECTION
M  V30 MDLV30/STERAC1 ATOMS=(1 24)
M  V30 END COLLECTION
M  V30 END CTAB
M  END
>  <Molecule Name>
MEIJADBULOETOV-SKQPGPIJNA-O

>  <hs_clash>
57.0

>  <hs_total>
55.942762283663974

>  <Total Molweight>
459.367

>  <cLogP>
2.2994

>  <H-Acceptors>
7

>  <H-Donors>
4

>  <Polar Surface Area>
83.74

>  <Non-H Atoms>
29

>  <sp3-Atoms>
8

$$$$
PBCZSGKMGDDXIJ-IAXLQYSQNA-O
Actelion Java MolfileCreator 2.0

  0  0  0  0  0  0              0 V3000
M  V30 BEGIN CTAB
M  V30 COUNTS 63 70 0 0 0
M  V30 BEGIN ATOM
M  V30 1 O 28.1604 4.0547 66.0534 0
M  V30 2 C 27.181 4.1473 65.3429 0
M  V30 3 N 26.333 3.1853 64.9589 0
M  V30 4 C 26.6983 5.4183 64.7896 0
M  V30 5 C 25.1609 3.6732 64.2223 0 CFG=1
M  V30 6 C 27.228 6.7857 64.8273 0
M  V30 7 C 25.4459 5.1552 64.0911 0
M  V30 8 O 24.7628 2.8819 63.0965 0
M  V30 9 C 26.4772 7.8558 64.1619 0
M  V30 10 C 28.4279 7.3887 65.4157 0
M  V30 11 C 24.7567 6.2088 63.4763 0
M  V30 12 N 27.1649 9.0718 64.3471 0
M  V30 13 C 25.2585 7.6138 63.5098 0
M  V30 14 C 28.3516 8.8181 65.0757 0
M  V30 15 C 29.493 6.8571 66.1215 0
M  V30 16 C 23.5006 6.2731 62.6961 0
M  V30 17 C 26.6929 10.4022 63.94 0 CFG=2
M  V30 18 N 24.3805 8.3685 62.8055 0
M  V30 19 C 29.3649 9.6894 65.4953 0
M  V30 20 C 30.4902 7.7607 66.5264 0
M  V30 21 C 23.3265 7.69 62.2945 0
M  V30 22 C 22.5784 5.2484 62.3064 0
M  V30 23 O 25.2669 10.362 63.7628 0
M  V30 24 C 27.4449 10.8896 62.6862 0
M  V30 25 C 24.6828 9.8124 62.5676 0 CFG=1
M  V30 26 C 30.4284 9.1352 66.2216 0
M  V30 27 C 22.1566 7.9714 61.4965 0
M  V30 28 C 21.4692 5.6214 61.5498 0
M  V30 29 C 26.4735 11.1245 61.52 0 CFG=2
M  V30 30 C 25.5955 9.8856 61.3413 0 CFG=1
M  V30 31 C 23.4342 10.6665 62.339 0
M  V30 32 C 21.2618 6.9484 61.1582 0
M  V30 33 N 27.1065 11.4929 60.2678 0 CHG=1
M  V30 34 O 26.4082 8.6971 61.2153 0
M  V30 35 C 28.5501 11.4037 60.2037 0
M  V30 36 C 26.157 7.8977 60.0588 0
M  V30 37 H 26.4852 2.2174 65.1572 0
M  V30 38 H 24.3259 3.6117 64.936 0
M  V30 39 H 25.3473 3.0519 62.3672 0
M  V30 40 H 29.5544 5.8033 66.349 0
M  V30 41 H 26.9228 11.1085 64.7515 0
M  V30 42 H 29.3286 10.745 65.2686 0
M  V30 43 H 31.3328 7.3892 67.0904 0
M  V30 44 H 22.7378 4.219 62.5907 0
M  V30 45 H 27.9612 11.8323 62.9199 0
M  V30 46 H 28.1836 10.1299 62.392 0
M  V30 47 H 31.2251 9.782 66.5582 0
M  V30 48 H 21.9698 8.9799 61.1575 0
M  V30 49 H 20.7523 4.868 61.2586 0
M  V30 50 H 25.8086 11.9487 61.8184 0
M  V30 51 H 24.9748 10.0151 60.4427 0
M  V30 52 H 23.7304 11.7126 62.1715 0
M  V30 53 H 22.8911 10.2937 61.4583 0
M  V30 54 H 22.7826 10.6076 63.2234 0
M  V30 55 H 20.3847 7.1915 60.5769 0
M  V30 56 H 26.7361 10.8953 59.5568 0
M  V30 57 H 26.8545 12.4405 60.0711 0
M  V30 58 H 28.8928 11.7103 59.2044 0
M  V30 59 H 28.9924 12.0668 60.9621 0
M  V30 60 H 28.8622 10.3669 60.3964 0
M  V30 61 H 26.8263 7.0249 60.0636 0
M  V30 62 H 25.1109 7.5574 60.0686 0
M  V30 63 H 26.3398 8.4951 59.1535 0
M  V30 END ATOM
M  V30 BEGIN BOND
M  V30 1 2 1 2
M  V30 2 1 2 3
M  V30 3 1 2 4
M  V30 4 1 3 5
M  V30 5 2 4 6
M  V30 6 1 4 7
M  V30 7 1 5 8
M  V30 8 1 6 9
M  V30 9 1 6 10
M  V30 10 2 7 11
M  V30 11 1 9 12
M  V30 12 2 9 13
M  V30 13 2 10 14
M  V30 14 1 10 15
M  V30 15 1 11 16
M  V30 16 1 12 17
M  V30 17 1 13 18
M  V30 18 1 14 19
M  V30 19 2 15 20
M  V30 20 2 16 21
M  V30 21 1 16 22
M  V30 22 1 17 23
M  V30 23 1 17 24
M  V30 24 1 18 25
M  V30 25 2 19 26
M  V30 26 1 21 27
M  V30 27 2 22 28
M  V30 28 1 24 29
M  V30 29 1 25 30
M  V30 30 1 25 31
M  V30 31 2 27 32
M  V30 32 1 29 33
M  V30 33 1 30 34
M  V30 34 1 33 35
M  V30 35 1 34 36
M  V30 36 1 5 7
M  V30 37 1 11 13
M  V30 38 1 12 14
M  V30 39 1 18 21
M  V30 40 1 20 26
M  V30 41 1 23 25
M  V30 42 1 28 32
M  V30 43 1 29 30
M  V30 44 1 3 37
M  V30 45 1 5 38
M  V30 46 1 8 39
M  V30 47 1 15 40
M  V30 48 1 17 41
M  V30 49 1 19 42
M  V30 50 1 20 43
M  V30 51 1 22 44
M  V30 52 1 24 45
M  V30 53 1 24 46
M  V30 54 1 26 47
M  V30 55 1 27 48
M  V30 56 1 28 49
M  V30 57 1 29 50
M  V30 58 1 30 51
M  V30 59 1 31 52
M  V30 60 1 31 53
M  V30 61 1 31 54
M  V30 62 1 32 55
M  V30 63 1 33 56
M  V30 64 1 33 57
M  V30 65 1 35 58
M  V30 66 1 35 59
M  V30 67 1 35 60
M  V30 68 1 36 61
M  V30 69 1 36 62
M  V30 70 1 36 63
M  V30 END BOND
M  V30 BEGIN COLLECTION
M  V30 MDLV30/STERAC1 ATOMS=(5 5 17 25 29 30)
M  V30 END COLLECTION
M  V30 END CTAB
M  END
>  <Molecule Name>
PBCZSGKMGDDXIJ-IAXLQYSQNA-O

>  <hs_clash>
0.0

>  <hs_total>
54.99095621210214

>  <Total Molweight>
483.546

>  <cLogP>
2.9895

>  <H-Acceptors>
8

>  <H-Donors>
3

>  <Polar Surface Area>
94.26

>  <Non-H Atoms>
36

>  <sp3-Atoms>
13

$$$$
MEIJADBULOETOV-PDSMSVJHNA-O
Actelion Java MolfileCreator 2.0

  0  0  0  0  0  0              0 V3000
M  V30 BEGIN CTAB
M  V30 COUNTS 54 56 0 0 0
M  V30 BEGIN ATOM
M  V30 1 Br 25.1604 3.3606 63.1894 0
M  V30 2 C 26.7199 4.2198 63.8843 0
M  V30 3 C 27.058 5.5588 63.5504 0
M  V30 4 C 27.6103 3.5407 64.7797 0
M  V30 5 N 28.1587 6.1168 64.058 0
M  V30 6 N 26.1992 6.2977 62.636 0
M  V30 7 N 28.7158 4.1546 65.2696 0
M  V30 8 C 28.9387 5.4238 64.8906 0
M  V30 9 C 26.2107 7.6365 62.0606 0
M  V30 10 N 30.1215 6.0654 65.4304 0
M  V30 11 C 25.6969 7.787 60.7381 0
M  V30 12 C 26.7144 8.791 62.7441 0
M  V30 13 C 30.7092 7.3997 65.2878 0
M  V30 14 C 25.6809 9.0621 60.1098 0
M  V30 15 C 26.6973 10.0649 62.1125 0
M  V30 16 C 31.6746 7.8632 66.2178 0
M  V30 17 C 30.2971 8.2485 64.2045 0
M  V30 18 C 26.1805 10.1965 60.7976 0
M  V30 19 C 32.2283 9.1636 66.0748 0
M  V30 20 C 30.8448 9.542 64.0596 0
M  V30 21 C 31.8152 10.0155 64.9925 0
M  V30 22 O 32.3931 11.3082 64.8766 0
M  V30 23 C 31.5363 12.3651 64.3057 0
M  V30 24 C 32.4384 13.5485 63.8427 0 CFG=1
M  V30 25 O 32.9741 13.2461 62.5582 0
M  V30 26 C 33.6102 13.7671 64.866 0
M  V30 27 N 34.275 15.1253 64.8682 0 CHG=1
M  V30 28 C 35.1605 15.4103 63.7033 0
M  V30 29 C 33.4136 16.2764 65.2661 0
M  V30 30 H 27.3967 2.5226 65.0691 0
M  V30 31 H 25.2525 5.9994 62.7588 0
M  V30 32 H 30.7706 5.405 65.8074 0
M  V30 33 H 25.3167 6.9251 60.2104 0
M  V30 34 H 27.109 8.693 63.7446 0
M  V30 35 H 25.2881 9.1664 59.1093 0
M  V30 36 H 27.0772 10.9315 62.6335 0
M  V30 37 H 31.9882 7.2286 67.0336 0
M  V30 38 H 29.563 7.895 63.4959 0
M  V30 39 H 26.1679 11.1648 60.3191 0
M  V30 40 H 32.9639 9.5147 66.7833 0
M  V30 41 H 30.5289 10.1734 63.2424 0
M  V30 42 H 30.9803 11.9656 63.4451 0
M  V30 43 H 30.8265 12.7183 65.0687 0
M  V30 44 H 31.83 14.4643 63.8039 0
M  V30 45 H 33.0534 12.3046 62.4616 0
M  V30 46 H 33.2069 13.5933 65.8747 0
M  V30 47 H 34.3855 13.0184 64.6473 0
M  V30 48 H 34.9202 15.0547 65.629 0
M  V30 49 H 35.5891 16.4181 63.806 0
M  V30 50 H 35.9717 14.6685 63.67 0
M  V30 51 H 34.5737 15.3543 62.7748 0
M  V30 52 H 34.002 17.2052 65.2305 0
M  V30 53 H 32.563 16.3548 64.573 0
M  V30 54 H 33.0397 16.1186 66.2886 0
M  V30 END ATOM
M  V30 BEGIN BOND
M  V30 1 1 1 2
M  V30 2 2 2 3
M  V30 3 1 2 4
M  V30 4 1 3 5
M  V30 5 1 3 6
M  V30 6 2 4 7
M  V30 7 2 5 8
M  V30 8 1 6 9
M  V30 9 1 8 10
M  V30 10 2 9 11
M  V30 11 1 9 12
M  V30 12 1 10 13
M  V30 13 1 11 14
M  V30 14 2 12 15
M  V30 15 2 13 16
M  V30 16 1 13 17
M  V30 17 2 14 18
M  V30 18 1 16 19
M  V30 19 2 17 20
M  V30 20 2 19 21
M  V30 21 1 21 22
M  V30 22 1 22 23
M  V30 23 1 23 24
M  V30 24 1 24 25
M  V30 25 1 24 26
M  V30 26 1 26 27
M  V30 27 1 27 28
M  V30 28 1 27 29
M  V30 29 1 7 8
M  V30 30 1 15 18
M  V30 31 1 20 21
M  V30 32 1 4 30
M  V30 33 1 6 31
M  V30 34 1 10 32
M  V30 35 1 11 33
M  V30 36 1 12 34
M  V30 37 1 14 35
M  V30 38 1 15 36
M  V30 39 1 16 37
M  V30 40 1 17 38
M  V30 41 1 18 39
M  V30 42 1 19 40
M  V30 43 1 20 41
M  V30 44 1 23 42
M  V30 45 1 23 43
M  V30 46 1 24 44
M  V30 47 1 25 45
M  V30 48 1 26 46
M  V30 49 1 26 47
M  V30 50 1 27 48
M  V30 51 1 28 49
M  V30 52 1 28 50
M  V30 53 1 28 51
M  V30 54 1 29 52
M  V30 55 1 29 53
M  V30 56 1 29 54
M  V30 END BOND
M  V30 BEGIN COLLECTION
M  V30 MDLV30/STERAC1 ATOMS=(1 24)
M  V30 END COLLECTION
M  V30 END CTAB
M  END
>  <Molecule Name>
MEIJADBULOETOV-PDSMSVJHNA-O

>  <hs_clash>
76.0

>  <hs_total>
54.705716253103986

>  <Total Molweight>
459.367

>  <cLogP>
2.2994

>  <H-Acceptors>
7

>  <H-Donors>
4

>  <Polar Surface Area>
83.74

>  <Non-H Atoms>
29

>  <sp3-Atoms>
8

$$$$
WDGFFVCWBZVLCE-JFMOSPSRNA-L
Actelion Java MolfileCreator 2.0

  0  0  0  0  0  0              0 V3000
M  V30 BEGIN CTAB
M  V30 COUNTS 22 23 0 0 0
M  V30 BEGIN ATOM
M  V30 1 O 24.3857 3.5704 62.3017 0
M  V30 2 C 24.6717 4.7967 62.1706 0
M  V30 3 C 23.8147 5.4471 61.2435 0
M  V30 4 C 25.7634 5.3178 62.9341 0
M  V30 5 O 22.8278 4.7299 60.625 0 CHG=-1
M  V30 6 C 23.8141 6.7818 60.8314 0
M  V30 7 C 26.4669 4.4193 63.8152 0
M  V30 8 C 26.2291 6.6805 62.9028 0
M  V30 9 C 24.6588 7.8101 61.2206 0
M  V30 10 O 26.1788 3.1089 63.9759 0 CHG=-1
M  V30 11 C 27.5449 4.8076 64.6104 0
M  V30 12 C 25.7119 7.7588 62.137 0
M  V30 13 C 27.331 7.0523 63.7335 0
M  V30 14 O 28.1319 3.8709 65.4013 0
M  V30 15 C 27.9819 6.1416 64.5752 0
M  V30 16 O 29.0235 6.5634 65.3249 0
M  V30 17 H 23.0535 7.0487 60.1125 0
M  V30 18 H 24.4803 8.7696 60.7584 0
M  V30 19 H 26.2193 8.6999 62.289 0
M  V30 20 H 27.6754 8.0756 63.7114 0
M  V30 21 H 27.6915 3.0373 65.2858 0
M  V30 22 H 29.6596 5.8629 65.4061 0
M  V30 END ATOM
M  V30 BEGIN BOND
M  V30 1 2 1 2
M  V30 2 1 2 3
M  V30 3 1 2 4
M  V30 4 1 3 5
M  V30 5 2 3 6
M  V30 6 2 4 7
M  V30 7 1 4 8
M  V30 8 1 6 9
M  V30 9 1 7 10
M  V30 10 1 7 11
M  V30 11 1 8 12
M  V30 12 2 8 13
M  V30 13 1 11 14
M  V30 14 2 11 15
M  V30 15 1 15 16
M  V30 16 2 9 12
M  V30 17 1 13 15
M  V30 18 1 6 17
M  V30 19 1 9 18
M  V30 20 1 12 19
M  V30 21 1 13 20
M  V30 22 1 14 21
M  V30 23 1 16 22
M  V30 END BOND
M  V30 END CTAB
M  END
>  <Molecule Name>
WDGFFVCWBZVLCE-JFMOSPSRNA-L

>  <hs_clash>
1.0

>  <hs_total>
54.603299726420786

>  <Total Molweight>
218.164

>  <cLogP>
-3.0225

>  <H-Acceptors>
5

>  <H-Donors>
2

>  <Polar Surface Area>
103.65

>  <Non-H Atoms>
16

>  <sp3-Atoms>
4

$$$$
TXYKBKYDFZQOCB-MTIBQORONA-O
Actelion Java MolfileCreator 2.0

  0  0  0  0  0  0              0 V3000
M  V30 BEGIN CTAB
M  V30 COUNTS 35 37 0 0 0
M  V30 BEGIN ATOM
M  V30 1 S 23.6049 5.7533 61.8348 0
M  V30 2 C 24.0913 7.3928 61.7198 0
M  V30 3 C 24.942 5.288 62.8171 0
M  V30 4 C 23.2196 8.2531 60.9478 0
M  V30 5 C 25.2667 7.5654 62.4325 0
M  V30 6 C 25.7654 6.3783 63.0584 0
M  V30 7 C 25.198 4.0328 63.3073 0
M  V30 8 O 22.0577 7.9468 60.712 0
M  V30 9 N 23.6804 9.454 60.4733 0
M  V30 10 N 25.9489 8.734 62.5665 0
M  V30 11 C 26.9003 6.1891 63.8431 0
M  V30 12 C 26.3239 3.8662 64.0807 0
M  V30 13 C 24.9398 10.0667 60.7469 0 CFG=2
M  V30 14 C 25.3282 9.9949 62.207 0
M  V30 15 C 27.1544 4.9261 64.3455 0
M  V30 16 C 25.9721 9.6204 59.7361 0
M  V30 17 O 28.2701 4.6679 65.138 0
M  V30 18 N 25.316 9.6657 58.3985 0 CHG=1
M  V30 19 C 28.6663 5.9154 65.6892 0
M  V30 20 H 24.5387 3.2045 63.094 0
M  V30 21 H 23.0644 9.9576 59.8676 0
M  V30 22 H 26.5868 8.773 63.3353 0
M  V30 23 H 27.5678 7.0112 64.0549 0
M  V30 24 H 26.556 2.8916 64.4833 0
M  V30 25 H 24.7978 11.1392 60.5476 0
M  V30 26 H 26.0367 10.8085 62.4221 0
M  V30 27 H 24.4226 10.1267 62.8177 0
M  V30 28 H 26.8382 10.298 59.7559 0
M  V30 29 H 26.3026 8.5957 59.9609 0
M  V30 30 H 25.9675 9.3766 57.6975 0
M  V30 31 H 24.5266 9.0521 58.3936 0
M  V30 32 H 25.0133 10.5996 58.2074 0
M  V30 33 H 29.5495 5.7702 66.3285 0
M  V30 34 H 28.913 6.6136 64.8761 0
M  V30 35 H 27.8429 6.3288 66.2904 0
M  V30 END ATOM
M  V30 BEGIN BOND
M  V30 1 1 1 2
M  V30 2 1 1 3
M  V30 3 1 2 4
M  V30 4 2 2 5
M  V30 5 2 3 6
M  V30 6 1 3 7
M  V30 7 2 4 8
M  V30 8 1 4 9
M  V30 9 1 5 10
M  V30 10 1 6 11
M  V30 11 2 7 12
M  V30 12 1 9 13
M  V30 13 1 10 14
M  V30 14 2 11 15
M  V30 15 1 13 16
M  V30 16 1 15 17
M  V30 17 1 16 18
M  V30 18 1 17 19
M  V30 19 1 5 6
M  V30 20 1 12 15
M  V30 21 1 13 14
M  V30 22 1 7 20
M  V30 23 1 9 21
M  V30 24 1 10 22
M  V30 25 1 11 23
M  V30 26 1 12 24
M  V30 27 1 13 25
M  V30 28 1 14 26
M  V30 29 1 14 27
M  V30 30 1 16 28
M  V30 31 1 16 29
M  V30 32 1 18 30
M  V30 33 1 18 31
M  V30 34 1 18 32
M  V30 35 1 19 33
M  V30 36 1 19 34
M  V30 37 1 19 35
M  V30 END BOND
M  V30 BEGIN COLLECTION
M  V30 MDLV30/STERAC1 ATOMS=(1 13)
M  V30 END COLLECTION
M  V30 END CTAB
M  END
>  <Molecule Name>
TXYKBKYDFZQOCB-MTIBQORONA-O

>  <hs_clash>
0.0

>  <hs_total>
53.75267500058739

>  <Total Molweight>
278.355

>  <cLogP>
-2.8209

>  <H-Acceptors>
5

>  <H-Donors>
3

>  <Polar Surface Area>
106.24

>  <Non-H Atoms>
19

>  <sp3-Atoms>
7

$$$$
VNAJSBPSKADKDA-LRNNEFBYNA-N
Actelion Java MolfileCreator 2.0

  0  0  0  0  0  0              0 V3000
M  V30 BEGIN CTAB
M  V30 COUNTS 42 45 0 0 0
M  V30 BEGIN ATOM
M  V30 1 S 33.7412 10.9511 64.901 0
M  V30 2 O 34.3623 11.0231 66.1896 0
M  V30 3 O 34.5363 10.4898 63.8104 0
M  V30 4 N 32.9632 12.3703 64.479 0
M  V30 5 C 32.4742 9.8641 65.0046 0
M  V30 6 C 32.0233 13.1074 65.2884 0
M  V30 7 C 32.3584 9.0037 66.1314 0
M  V30 8 C 31.581 9.7074 63.9599 0
M  V30 9 O 31.5302 14.1314 64.814 0
M  V30 10 C 31.701 12.6063 66.6745 0
M  V30 11 C 31.3791 8.0192 66.159 0
M  V30 12 C 30.6065 8.7289 63.9646 0
M  V30 13 C 30.4767 7.8815 65.0954 0
M  V30 14 N 29.5092 6.8578 65.0813 0
M  V30 15 C 28.4568 6.7481 64.2141 0
M  V30 16 C 27.6205 5.7295 64.2173 0
M  V30 17 C 27.758 4.5266 65.0374 0
M  V30 18 C 26.4401 5.5339 63.3882 0
M  V30 19 O 28.6321 4.3695 65.8852 0
M  V30 20 N 26.754 3.6522 64.6869 0
M  V30 21 C 25.7556 6.2456 62.4374 0
M  V30 22 C 25.9363 4.2349 63.6941 0
M  V30 23 S 26.1109 7.8066 61.7924 0
M  V30 24 C 24.6075 5.6793 61.8439 0
M  V30 25 C 24.861 3.6624 63.0753 0
M  V30 26 C 24.6857 7.6122 60.7905 0
M  V30 27 N 23.9928 6.525 60.8921 0
M  V30 28 C 24.1434 4.4199 62.1225 0
M  V30 29 H 33.1703 12.7456 63.5758 0
M  V30 30 H 33.0331 9.1164 66.967 0
M  V30 31 H 31.6476 10.3732 63.1123 0
M  V30 32 H 30.9834 13.2887 67.1543 0
M  V30 33 H 31.2613 11.6005 66.6076 0
M  V30 34 H 32.6229 12.5646 67.2729 0
M  V30 35 H 31.3122 7.3544 67.0076 0
M  V30 36 H 29.9495 8.6098 63.116 0
M  V30 37 H 28.3036 7.5355 63.491 0
M  V30 38 H 29.0028 5.2126 66.1181 0
M  V30 39 H 26.6232 2.7409 65.0769 0
M  V30 40 H 24.5651 2.6507 63.3102 0
M  V30 41 H 24.3909 8.3882 60.0995 0
M  V30 42 H 23.2659 4.0232 61.6339 0
M  V30 END ATOM
M  V30 BEGIN BOND
M  V30 1 2 1 2
M  V30 2 2 1 3
M  V30 3 1 1 4
M  V30 4 1 1 5
M  V30 5 1 4 6
M  V30 6 2 5 7
M  V30 7 1 5 8
M  V30 8 2 6 9
M  V30 9 1 6 10
M  V30 10 1 7 11
M  V30 11 2 8 12
M  V30 12 2 11 13
M  V30 13 1 13 14
M  V30 14 2 14 15
M  V30 15 1 15 16
M  V30 16 2 16 17
M  V30 17 1 16 18
M  V30 18 1 17 19
M  V30 19 1 17 20
M  V30 20 2 18 21
M  V30 21 1 18 22
M  V30 22 1 21 23
M  V30 23 1 21 24
M  V30 24 2 22 25
M  V30 25 1 23 26
M  V30 26 1 24 27
M  V30 27 2 24 28
M  V30 28 1 12 13
M  V30 29 1 20 22
M  V30 30 1 25 28
M  V30 31 2 26 27
M  V30 32 1 4 29
M  V30 33 1 7 30
M  V30 34 1 8 31
M  V30 35 1 10 32
M  V30 36 1 10 33
M  V30 37 1 10 34
M  V30 38 1 11 35
M  V30 39 1 12 36
M  V30 40 1 15 37
M  V30 41 1 19 38
M  V30 42 1 20 39
M  V30 43 1 25 40
M  V30 44 1 26 41
M  V30 45 1 28 42
M  V30 END BOND
M  V30 END CTAB
M  END
>  <Molecule Name>
VNAJSBPSKADKDA-LRNNEFBYNA-N

>  <hs_clash>
1.0

>  <hs_total>
53.43162390854445

>  <Total Molweight>
414.465

>  <cLogP>
2.215

>  <H-Acceptors>
8

>  <H-Donors>
3

>  <Polar Surface Area>
161.13

>  <Non-H Atoms>
28

>  <sp3-Atoms>
3

$$$$
KPLUVIWNJYXFQT-WOJGMQOQNA-N
Actelion Java MolfileCreator 2.0

  0  0  0  0  0  0              0 V3000
M  V30 BEGIN CTAB
M  V30 COUNTS 33 35 0 0 0
M  V30 BEGIN ATOM
M  V30 1 O 28.8769 4.1795 65.65 0
M  V30 2 C 27.9167 4.2897 64.6625 0
M  V30 3 C 27.8445 5.4647 63.8868 0
M  V30 4 C 27.0405 3.2268 64.438 0
M  V30 5 C 26.8337 5.5835 62.8414 0
M  V30 6 C 28.837 6.6408 64.1541 0
M  V30 7 C 26.0507 3.3339 63.4228 0
M  V30 8 C 25.9617 4.5304 62.6206 0
M  V30 9 C 26.7395 6.7624 62.0416 0
M  V30 10 N 29.873 6.4587 65.1639 0
M  V30 11 C 24.955 4.6415 61.5785 0
M  V30 12 C 25.7546 6.8664 61.0206 0
M  V30 13 C 30.8925 7.4723 65.4318 0
M  V30 14 C 24.8632 5.7939 60.8042 0
M  V30 15 C 31.3902 7.6466 66.7354 0
M  V30 16 C 31.3663 8.267 64.4114 0
M  V30 17 C 32.3741 8.6297 66.9994 0
M  V30 18 C 32.3573 9.2521 64.6792 0
M  V30 19 C 32.8558 9.4201 65.978 0
M  V30 20 O 33.8061 10.3719 66.2418 0
M  V30 21 H 29.6274 4.7164 65.424 0
M  V30 22 H 27.1136 2.3278 65.0322 0
M  V30 23 H 28.7578 7.5671 63.6042 0
M  V30 24 H 25.3639 2.5183 63.2517 0
M  V30 25 H 27.4213 7.5821 62.2134 0
M  V30 26 H 24.2723 3.8228 61.4037 0
M  V30 27 H 25.6895 7.7589 60.4157 0
M  V30 28 H 24.1081 5.8678 60.0357 0
M  V30 29 H 31.02 7.0274 67.5394 0
M  V30 30 H 30.9856 8.1424 63.4085 0
M  V30 31 H 32.7482 8.7609 68.0041 0
M  V30 32 H 32.7272 9.8737 63.8772 0
M  V30 33 H 34.242 10.1665 67.0608 0
M  V30 END ATOM
M  V30 BEGIN BOND
M  V30 1 1 1 2
M  V30 2 2 2 3
M  V30 3 1 2 4
M  V30 4 1 3 5
M  V30 5 1 3 6
M  V30 6 2 4 7
M  V30 7 1 5 8
M  V30 8 2 5 9
M  V30 9 2 6 10
M  V30 10 2 8 11
M  V30 11 1 9 12
M  V30 12 1 10 13
M  V30 13 1 11 14
M  V30 14 2 13 15
M  V30 15 1 13 16
M  V30 16 1 15 17
M  V30 17 2 16 18
M  V30 18 2 17 19
M  V30 19 1 19 20
M  V30 20 1 7 8
M  V30 21 2 12 14
M  V30 22 1 18 19
M  V30 23 1 1 21
M  V30 24 1 4 22
M  V30 25 1 6 23
M  V30 26 1 7 24
M  V30 27 1 9 25
M  V30 28 1 11 26
M  V30 29 1 12 27
M  V30 30 1 14 28
M  V30 31 1 15 29
M  V30 32 1 16 30
M  V30 33 1 17 31
M  V30 34 1 18 32
M  V30 35 1 20 33
M  V30 END BOND
M  V30 END CTAB
M  END
>  <Molecule Name>
KPLUVIWNJYXFQT-WOJGMQOQNA-N

>  <hs_clash>
0.0

>  <hs_total>
53.35874147754719

>  <Total Molweight>
263.295

>  <cLogP>
3.5364

>  <H-Acceptors>
3

>  <H-Donors>
2

>  <Polar Surface Area>
52.82

>  <Non-H Atoms>
20

>  <sp3-Atoms>
2

$$$$
LTZGVONWBPMCBP-CPHRPIPWNA-M
Actelion Java MolfileCreator 2.0

  0  0  0  0  0  0              0 V3000
M  V30 BEGIN CTAB
M  V30 COUNTS 56 59 0 0 0
M  V30 BEGIN ATOM
M  V30 1 Cl 19.7101 -2.7362 54.812 0
M  V30 2 C 20.4515 -2.6473 56.3909 0
M  V30 3 C 20.7785 -1.3932 56.9383 0
M  V30 4 C 20.7396 -3.8252 57.0999 0
M  V30 5 C 21.3884 -1.3044 58.1997 0
M  V30 6 C 21.3517 -3.7427 58.3464 0
M  V30 7 C 21.7477 0.0205 58.7722 0
M  V30 8 C 21.6755 -2.4896 58.8939 0
M  V30 9 C 20.9068 1.1528 58.6233 0
M  V30 10 C 22.9581 0.1658 59.475 0
M  V30 11 C 21.2499 2.3981 59.1748 0
M  V30 12 C 23.2995 1.3863 60.03 0
M  V30 13 C 22.4591 2.5001 59.8956 0
M  V30 14 C 20.437 3.5499 59.0691 0
M  V30 15 N 22.8354 3.6619 60.4496 0
M  V30 16 C 19.1047 3.5706 58.3482 0
M  V30 17 C 20.8649 4.732 59.6843 0
M  V30 18 C 22.0797 4.7623 60.3705 0
M  V30 19 O 18.0914 4.0051 58.9581 0
M  V30 20 O 19.0196 3.1337 57.1689 0 CHG=-1
M  V30 21 C 22.6004 6.0227 60.988 0
M  V30 22 O 21.7992 6.877 61.352 0
M  V30 23 N 23.9349 6.1471 61.1127 0
M  V30 24 C 24.5544 7.3231 61.6859 0 CFG=2
M  V30 25 C 25.9885 7.3956 61.2186 0
M  V30 26 C 24.4959 7.2526 63.2489 0
M  V30 27 O 26.444 6.5523 60.4548 0
M  V30 28 O 26.6877 8.4412 61.6809 0
M  V30 29 C 25.4018 6.105 63.7768 0
M  V30 30 C 28.0569 8.5108 61.2162 0
M  V30 31 C 24.9401 4.77 63.7511 0
M  V30 32 C 26.6667 6.3863 64.3479 0
M  V30 33 C 25.7717 3.7237 64.2084 0
M  V30 34 C 27.4371 5.3514 64.9067 0
M  V30 35 C 27.0227 4.0109 64.7834 0
M  V30 36 O 27.8499 2.9526 65.1943 0
M  V30 37 H 20.5584 -0.4924 56.3847 0
M  V30 38 H 20.4876 -4.7878 56.6806 0
M  V30 39 H 21.5784 -4.6445 58.8953 0
M  V30 40 H 22.1518 -2.4381 59.8621 0
M  V30 41 H 19.982 1.0556 58.0737 0
M  V30 42 H 23.6229 -0.6782 59.5813 0
M  V30 43 H 24.2268 1.4821 60.5749 0
M  V30 44 H 20.2544 5.6214 59.6282 0
M  V30 45 H 24.5196 5.3997 60.7976 0
M  V30 46 H 24.0213 8.2279 61.3581 0
M  V30 47 H 24.8423 8.209 63.6677 0
M  V30 48 H 23.458 7.0689 63.5644 0
M  V30 49 H 28.5462 9.397 61.6469 0
M  V30 50 H 28.5966 7.6053 61.5301 0
M  V30 51 H 28.0681 8.5829 60.1187 0
M  V30 52 H 23.9497 4.5491 63.381 0
M  V30 53 H 27.0408 7.3996 64.3542 0
M  V30 54 H 25.4451 2.6986 64.1165 0
M  V30 55 H 28.3507 5.5855 65.4331 0
M  V30 56 H 27.4191 2.1253 65.0142 0
M  V30 END ATOM
M  V30 BEGIN BOND
M  V30 1 1 1 2
M  V30 2 2 2 3
M  V30 3 1 2 4
M  V30 4 1 3 5
M  V30 5 2 4 6
M  V30 6 1 5 7
M  V30 7 2 5 8
M  V30 8 2 7 9
M  V30 9 1 7 10
M  V30 10 1 9 11
M  V30 11 2 10 12
M  V30 12 1 11 13
M  V30 13 2 11 14
M  V30 14 2 13 15
M  V30 15 1 14 16
M  V30 16 1 14 17
M  V30 17 1 15 18
M  V30 18 2 16 19
M  V30 19 1 16 20
M  V30 20 1 18 21
M  V30 21 2 21 22
M  V30 22 1 21 23
M  V30 23 1 23 24
M  V30 24 1 24 25
M  V30 25 1 24 26
M  V30 26 2 25 27
M  V30 27 1 25 28
M  V30 28 1 26 29
M  V30 29 1 28 30
M  V30 30 2 29 31
M  V30 31 1 29 32
M  V30 32 1 31 33
M  V30 33 2 32 34
M  V30 34 2 33 35
M  V30 35 1 35 36
M  V30 36 1 6 8
M  V30 37 1 12 13
M  V30 38 2 17 18
M  V30 39 1 34 35
M  V30 40 1 3 37
M  V30 41 1 4 38
M  V30 42 1 6 39
M  V30 43 1 8 40
M  V30 44 1 9 41
M  V30 45 1 10 42
M  V30 46 1 12 43
M  V30 47 1 17 44
M  V30 48 1 23 45
M  V30 49 1 24 46
M  V30 50 1 26 47
M  V30 51 1 26 48
M  V30 52 1 30 49
M  V30 53 1 30 50
M  V30 54 1 30 51
M  V30 55 1 31 52
M  V30 56 1 32 53
M  V30 57 1 33 54
M  V30 58 1 34 55
M  V30 59 1 36 56
M  V30 END BOND
M  V30 BEGIN COLLECTION
M  V30 MDLV30/STERAC1 ATOMS=(1 24)
M  V30 END COLLECTION
M  V30 END CTAB
M  END
>  <Molecule Name>
LTZGVONWBPMCBP-CPHRPIPWNA-M

>  <hs_clash>
66.0

>  <hs_total>
53.305709303505296

>  <Total Molweight>
503.917

>  <cLogP>
2.1561

>  <H-Acceptors>
8

>  <H-Donors>
2

>  <Polar Surface Area>
128.65

>  <Non-H Atoms>
36

>  <sp3-Atoms>
6

$$$$
LPSCCOBGZSKECZ-YNRCZZKYNA-O
Actelion Java MolfileCreator 2.0

  0  0  0  0  0  0              0 V3000
M  V30 BEGIN CTAB
M  V30 COUNTS 58 63 0 0 0
M  V30 BEGIN ATOM
M  V30 1 N 28.2271 4.0236 65.4913 0
M  V30 2 N 27.2172 3.3028 64.9817 0
M  V30 3 C 28.0987 5.2159 64.8942 0
M  V30 4 C 26.4497 3.9827 64.0831 0
M  V30 5 C 29.0543 6.3176 65.1376 0
M  V30 6 C 27.0004 5.2444 64.0001 0
M  V30 7 C 25.3684 3.5591 63.354 0
M  V30 8 N 30.0707 6.2339 65.9597 0
M  V30 9 N 29.0228 7.543 64.5372 0
M  V30 10 C 26.435 6.1827 63.1562 0
M  V30 11 C 24.815 4.5029 62.5198 0
M  V30 12 C 30.7079 7.4433 65.8938 0
M  V30 13 C 30.0677 8.2788 65.0073 0
M  V30 14 C 25.3366 5.7703 62.4378 0
M  V30 15 C 23.7321 4.116 61.6591 0
M  V30 16 C 31.8335 7.8726 66.5717 0
M  V30 17 C 30.4682 9.5623 64.7262 0
M  V30 18 C 22.7151 4.964 61.2887 0
M  V30 19 C 23.7562 2.844 61.1384 0
M  V30 20 C 32.2451 9.1553 66.3006 0
M  V30 21 N 29.7928 10.3884 63.8253 0
M  V30 22 C 31.5872 9.9697 65.4105 0
M  V30 23 C 21.7414 4.5364 60.4146 0
M  V30 24 C 22.7819 2.4085 60.2735 0
M  V30 25 C 29.5653 9.639 62.6153 0
M  V30 26 C 30.5438 11.6033 63.6063 0
M  V30 27 C 21.7657 3.2594 59.9001 0
M  V30 28 C 28.6512 10.4787 61.7573 0
M  V30 29 C 29.7304 12.5136 62.7161 0
M  V30 30 N 20.777 2.8172 59.0013 0
M  V30 31 N 29.3487 11.7653 61.4905 0 CHG=1
M  V30 32 C 28.5628 12.6133 60.566 0
M  V30 33 H 27.043 2.3522 65.238 0
M  V30 34 H 24.9781 2.5551 63.4292 0
M  V30 35 H 28.3469 7.8487 63.8662 0
M  V30 36 H 26.8331 7.1826 63.0661 0
M  V30 37 H 24.8607 6.479 61.7764 0
M  V30 38 H 32.3574 7.2388 67.2718 0
M  V30 39 H 22.6798 5.9684 61.6847 0
M  V30 40 H 24.5567 2.174 61.4149 0
M  V30 41 H 33.1192 9.5384 66.8063 0
M  V30 42 H 31.9641 10.9679 65.2428 0
M  V30 43 H 20.9481 5.2112 60.1288 0
M  V30 44 H 22.8128 1.4005 59.8872 0
M  V30 45 H 30.5175 9.4604 62.0946 0
M  V30 46 H 29.0885 8.6757 62.849 0
M  V30 47 H 30.7356 12.1001 64.569 0
M  V30 48 H 31.5008 11.3655 63.1193 0
M  V30 49 H 28.4434 9.96 60.8098 0
M  V30 50 H 27.7056 10.6668 62.2872 0
M  V30 51 H 30.3297 13.3941 62.4408 0
M  V30 52 H 28.8242 12.8391 63.2484 0
M  V30 53 H 21.1679 2.1336 58.3853 0
M  V30 54 H 20.4401 3.5928 58.4675 0
M  V30 55 H 30.1997 11.5367 61.018 0
M  V30 56 H 29.1001 13.5561 60.3863 0
M  V30 57 H 28.4225 12.0837 59.6124 0
M  V30 58 H 27.5812 12.8305 61.0127 0
M  V30 END ATOM
M  V30 BEGIN BOND
M  V30 1 1 1 2
M  V30 2 2 1 3
M  V30 3 1 2 4
M  V30 4 1 3 5
M  V30 5 1 3 6
M  V30 6 1 4 7
M  V30 7 2 5 8
M  V30 8 1 5 9
M  V30 9 1 6 10
M  V30 10 2 7 11
M  V30 11 1 8 12
M  V30 12 1 9 13
M  V30 13 2 10 14
M  V30 14 1 11 15
M  V30 15 1 12 16
M  V30 16 1 13 17
M  V30 17 2 15 18
M  V30 18 1 15 19
M  V30 19 2 16 20
M  V30 20 1 17 21
M  V30 21 2 17 22
M  V30 22 1 18 23
M  V30 23 2 19 24
M  V30 24 1 21 25
M  V30 25 1 21 26
M  V30 26 2 23 27
M  V30 27 1 25 28
M  V30 28 1 26 29
M  V30 29 1 27 30
M  V30 30 1 28 31
M  V30 31 1 31 32
M  V30 32 2 4 6
M  V30 33 1 11 14
M  V30 34 2 12 13
M  V30 35 1 20 22
M  V30 36 1 24 27
M  V30 37 1 29 31
M  V30 38 1 2 33
M  V30 39 1 7 34
M  V30 40 1 9 35
M  V30 41 1 10 36
M  V30 42 1 14 37
M  V30 43 1 16 38
M  V30 44 1 18 39
M  V30 45 1 19 40
M  V30 46 1 20 41
M  V30 47 1 22 42
M  V30 48 1 23 43
M  V30 49 1 24 44
M  V30 50 1 25 45
M  V30 51 1 25 46
M  V30 52 1 26 47
M  V30 53 1 26 48
M  V30 54 1 28 49
M  V30 55 1 28 50
M  V30 56 1 29 51
M  V30 57 1 29 52
M  V30 58 1 30 53
M  V30 59 1 30 54
M  V30 60 1 31 55
M  V30 61 1 32 56
M  V30 62 1 32 57
M  V30 63 1 32 58
M  V30 END BOND
M  V30 END CTAB
M  END
>  <Molecule Name>
LPSCCOBGZSKECZ-YNRCZZKYNA-O

>  <hs_clash>
2.0

>  <hs_total>
52.7335542347826

>  <Total Molweight>
424.530

>  <cLogP>
0.8543

>  <H-Acceptors>
7

>  <H-Donors>
4

>  <Polar Surface Area>
91.06

>  <Non-H Atoms>
32

>  <sp3-Atoms>
7

$$$$
QNUKRWAIZMBVCU-MEEIMAAPNA-N
Actelion Java MolfileCreator 2.0

  0  0  0  0  0  0              0 V3000
M  V30 BEGIN CTAB
M  V30 COUNTS 29 31 0 0 0
M  V30 BEGIN ATOM
M  V30 1 O 29.1331 3.9387 65.92 0
M  V30 2 C 28.5705 4.0117 65.4868 0
M  V30 3 N 28.0143 3.4414 65.4384 0
M  V30 4 C 28.3768 4.635 64.982 0
M  V30 5 C 27.4495 3.6701 64.9098 0
M  V30 6 C 27.6477 4.4051 64.6151 0
M  V30 7 C 28.7654 5.3119 64.8451 0
M  V30 8 C 26.7644 3.2817 64.658 0
M  V30 9 C 27.167 4.7791 64.0622 0
M  V30 10 C 29.4942 5.5927 65.1694 0
M  V30 11 C 26.287 3.6673 64.1009 0
M  V30 12 C 26.47 4.42 63.7903 0
M  V30 13 N 29.9708 5.2504 65.6908 0
M  V30 14 C 29.799 6.2975 64.9594 0
M  V30 15 O 25.9619 4.7357 63.2605 0
M  V30 16 C 30.5559 5.7269 65.801 0
M  V30 17 N 31.2368 5.8039 66.2113 0
M  V30 18 C 28.5092 -0.1726 67.9386 0
M  V30 19 H 28.0155 2.9454 65.7347 0
M  V30 20 H 28.492 5.6963 64.436 0
M  V30 21 H 26.6119 2.7186 64.8797 0
M  V30 22 H 27.3285 5.3413 63.8444 0
M  V30 23 H 25.7674 3.3824 63.9049 0
M  V30 24 H 30.3643 9.8464 63.3591 0
M  V30 25 H 29.5553 6.7069 64.5561 0
M  V30 26 H 31.0343 5.6142 66.1856 0
M  V30 27 H 28.0462 -0.0169 67.5317 0
M  V30 28 H 28.535 0.2594 68.4048 0
M  V30 29 H 29.0653 -0.1866 67.6318 0
M  V30 END ATOM
M  V30 BEGIN BOND
M  V30 1 2 1 2
M  V30 2 1 2 3
M  V30 3 1 2 4
M  V30 4 1 3 5
M  V30 5 1 4 6
M  V30 6 2 4 7
M  V30 7 1 5 8
M  V30 8 1 6 9
M  V30 9 1 7 10
M  V30 10 2 8 11
M  V30 11 2 9 12
M  V30 12 1 10 13
M  V30 13 2 10 14
M  V30 14 1 12 15
M  V30 15 1 13 16
M  V30 16 1 14 17
M  V30 17 1 15 18
M  V30 18 2 5 6
M  V30 19 1 11 12
M  V30 20 2 16 17
M  V30 21 1 3 19
M  V30 22 1 7 20
M  V30 23 1 8 21
M  V30 24 1 9 22
M  V30 25 1 11 23
M  V30 26 1 13 24
M  V30 27 1 14 25
M  V30 28 1 16 26
M  V30 29 1 18 27
M  V30 30 1 18 28
M  V30 31 1 18 29
M  V30 END BOND
M  V30 END CTAB
M  END
>  <Molecule Name>
QNUKRWAIZMBVCU-MEEIMAAPNA-N

>  <hs_clash>
21.0

>  <hs_total>
52.12966763823952

>  <Total Molweight>
241.249

>  <cLogP>
0.4099

>  <H-Acceptors>
5

>  <H-Donors>
2

>  <Polar Surface Area>
67.01

>  <Non-H Atoms>
18

>  <sp3-Atoms>
2

$$$$
BAZFHAGOCKJYHX-JNMKGCMKNA-M
Actelion Java MolfileCreator 2.0

  0  0  0  0  0  0              0 V3000
M  V30 BEGIN CTAB
M  V30 COUNTS 36 38 0 0 0
M  V30 BEGIN ATOM
M  V30 1 Cl 26.7042 6.827 60.0882 0
M  V30 2 C 25.3997 6.1076 60.9515 0
M  V30 3 C 25.5327 5.8686 62.3179 0
M  V30 4 C 24.2334 5.7775 60.2715 0
M  V30 5 N 26.7476 6.242 62.9992 0
M  V30 6 C 24.4702 5.3012 63.0185 0
M  V30 7 C 23.1865 5.2008 60.97 0
M  V30 8 C 27.4965 5.3142 63.7897 0
M  V30 9 C 23.3138 4.9618 62.3355 0
M  V30 10 N 28.5802 5.7148 64.4916 0
M  V30 11 C 27.1383 3.9731 63.8634 0
M  V30 12 C 29.2783 4.8493 65.2303 0
M  V30 13 C 27.8826 3.0859 64.6401 0
M  V30 14 N 28.9432 3.5618 65.3091 0
M  V30 15 N 30.4223 5.2789 65.9753 0
M  V30 16 C 31.0048 6.5883 65.8937 0
M  V30 17 C 30.7778 7.4958 64.8485 0
M  V30 18 C 31.858 6.9355 66.9303 0
M  V30 19 C 31.4247 8.7376 64.8626 0
M  V30 20 C 32.4838 8.1647 66.9513 0
M  V30 21 C 32.2705 9.0727 65.9318 0
M  V30 22 C 32.9919 10.3817 66.0297 0
M  V30 23 O 32.6623 11.3438 65.287 0
M  V30 24 O 33.9477 10.5128 66.8517 0 CHG=-1
M  V30 25 H 24.1448 5.9684 59.2122 0
M  V30 26 H 27.0778 7.1824 62.9161 0
M  V30 27 H 24.5471 5.1282 64.0818 0
M  V30 28 H 22.2733 4.9371 60.4571 0
M  V30 29 H 22.4959 4.5034 62.8721 0
M  V30 30 H 26.2783 3.6163 63.3163 0
M  V30 31 H 27.6121 2.0423 64.7012 0
M  V30 32 H 30.8458 4.6201 66.5969 0
M  V30 33 H 30.1098 7.2389 64.0395 0
M  V30 34 H 32.0351 6.2339 67.7322 0
M  V30 35 H 31.2731 9.4362 64.0531 0
M  V30 36 H 33.143 8.4188 67.7681 0
M  V30 END ATOM
M  V30 BEGIN BOND
M  V30 1 1 1 2
M  V30 2 2 2 3
M  V30 3 1 2 4
M  V30 4 1 3 5
M  V30 5 1 3 6
M  V30 6 2 4 7
M  V30 7 1 5 8
M  V30 8 2 6 9
M  V30 9 2 8 10
M  V30 10 1 8 11
M  V30 11 1 10 12
M  V30 12 2 11 13
M  V30 13 2 12 14
M  V30 14 1 12 15
M  V30 15 1 15 16
M  V30 16 2 16 17
M  V30 17 1 16 18
M  V30 18 1 17 19
M  V30 19 2 18 20
M  V30 20 2 19 21
M  V30 21 1 21 22
M  V30 22 2 22 23
M  V30 23 1 22 24
M  V30 24 1 7 9
M  V30 25 1 13 14
M  V30 26 1 20 21
M  V30 27 1 4 25
M  V30 28 1 5 26
M  V30 29 1 6 27
M  V30 30 1 7 28
M  V30 31 1 9 29
M  V30 32 1 11 30
M  V30 33 1 13 31
M  V30 34 1 15 32
M  V30 35 1 17 33
M  V30 36 1 18 34
M  V30 37 1 19 35
M  V30 38 1 20 36
M  V30 END BOND
M  V30 END CTAB
M  END
>  <Molecule Name>
BAZFHAGOCKJYHX-JNMKGCMKNA-M

>  <hs_clash>
2.0

>  <hs_total>
50.82402962890362

>  <Total Molweight>
339.761

>  <cLogP>
1.5524

>  <H-Acceptors>
6

>  <H-Donors>
2

>  <Polar Surface Area>
89.97

>  <Non-H Atoms>
24

>  <sp3-Atoms>
1

$$$$
MJIALGDLOLWBRQ-LZLYXTPCNA-N
Actelion Java MolfileCreator 2.0

  0  0  0  0  0  0              0 V3000
M  V30 BEGIN CTAB
M  V30 COUNTS 39 40 0 0 0
M  V30 BEGIN ATOM
M  V30 1 Br 25.1358 3.7071 63.1795 0
M  V30 2 C 26.7822 4.3208 63.9597 0
M  V30 3 C 27.2099 5.5895 63.5415 0
M  V30 4 C 27.5585 3.6294 64.8772 0
M  V30 5 N 28.3489 6.1563 64.0354 0
M  V30 6 N 26.5122 6.3021 62.6073 0
M  V30 7 N 28.6735 4.2726 65.3034 0
M  V30 8 C 29.0606 5.4862 64.8959 0
M  V30 9 C 27.0973 7.5242 62.0015 0 CFG=2
M  V30 10 N 30.1241 6.0349 65.4359 0
M  V30 11 C 26.746 7.6155 60.5113 0
M  V30 12 C 26.5651 8.7134 62.7802 0
M  V30 13 C 30.7286 7.1627 65.2524 0
M  V30 14 O 25.3689 7.8687 60.522 0
M  V30 15 C 30.3895 8.0628 64.2634 0
M  V30 16 C 31.8828 7.4008 66.0597 0
M  V30 17 C 31.1499 9.1882 64.0744 0
M  V30 18 C 32.6367 8.5504 65.8373 0
M  V30 19 C 32.3029 9.4318 64.8549 0
M  V30 20 S 33.3318 10.81 64.5115 0
M  V30 21 O 34.4704 10.2206 63.7597 0
M  V30 22 O 33.9909 11.3702 65.7682 0
M  V30 23 N 32.6059 11.9026 63.6237 0
M  V30 24 H 27.2923 2.6437 65.2293 0
M  V30 25 H 25.5266 6.1521 62.5271 0
M  V30 26 H 28.1919 7.4929 62.1043 0
M  V30 27 H 30.5555 5.4622 66.133 0
M  V30 28 H 26.9692 6.6701 59.9951 0
M  V30 29 H 27.2942 8.4366 60.0264 0
M  V30 30 H 26.8375 8.6096 63.841 0
M  V30 31 H 27.0018 9.6398 62.3786 0
M  V30 32 H 25.4699 8.7535 62.6855 0
M  V30 33 H 24.96 7.4312 59.7847 0
M  V30 34 H 29.5267 7.8815 63.6393 0
M  V30 35 H 32.1663 6.6999 66.8311 0
M  V30 36 H 30.8624 9.9016 63.3162 0
M  V30 37 H 33.5007 8.7464 66.4548 0
M  V30 38 H 33.2822 12.3805 63.0632 0
M  V30 39 H 31.9351 11.4585 63.0298 0
M  V30 END ATOM
M  V30 BEGIN BOND
M  V30 1 1 1 2
M  V30 2 2 2 3
M  V30 3 1 2 4
M  V30 4 1 3 5
M  V30 5 1 3 6
M  V30 6 2 4 7
M  V30 7 2 5 8
M  V30 8 1 6 9
M  V30 9 1 8 10
M  V30 10 1 9 11
M  V30 11 1 9 12
M  V30 12 1 10 13
M  V30 13 1 11 14
M  V30 14 2 13 15
M  V30 15 1 13 16
M  V30 16 1 15 17
M  V30 17 2 16 18
M  V30 18 2 17 19
M  V30 19 1 19 20
M  V30 20 2 20 21
M  V30 21 2 20 22
M  V30 22 1 20 23
M  V30 23 1 7 8
M  V30 24 1 18 19
M  V30 25 1 4 24
M  V30 26 1 6 25
M  V30 27 1 9 26
M  V30 28 1 10 27
M  V30 29 1 11 28
M  V30 30 1 11 29
M  V30 31 1 12 30
M  V30 32 1 12 31
M  V30 33 1 12 32
M  V30 34 1 14 33
M  V30 35 1 15 34
M  V30 36 1 16 35
M  V30 37 1 17 36
M  V30 38 1 18 37
M  V30 39 1 23 38
M  V30 40 1 23 39
M  V30 END BOND
M  V30 BEGIN COLLECTION
M  V30 MDLV30/STERAC1 ATOMS=(1 9)
M  V30 END COLLECTION
M  V30 END CTAB
M  END
>  <Molecule Name>
MJIALGDLOLWBRQ-LZLYXTPCNA-N

>  <hs_clash>
5.0

>  <hs_total>
50.489305088448

>  <Total Molweight>
402.272

>  <cLogP>
1.3228

>  <H-Acceptors>
8

>  <H-Donors>
4

>  <Polar Surface Area>
138.61

>  <Non-H Atoms>
23

>  <sp3-Atoms>
5

$$$$
WGPQOBMGPFXDSX-XFDRBGHPNA-N
Actelion Java MolfileCreator 2.0

  0  0  0  0  0  0              0 V3000
M  V30 BEGIN CTAB
M  V30 COUNTS 41 43 0 0 0
M  V30 BEGIN ATOM
M  V30 1 S 26.9669 7.859 62.4993 0
M  V30 2 C 25.5401 8.1845 61.5555 0
M  V30 3 C 26.3706 6.236 62.7814 0
M  V30 4 N 24.7083 7.1759 61.4373 0
M  V30 5 N 25.3094 9.4076 61.0576 0
M  V30 6 C 27.2161 5.3651 63.6158 0
M  V30 7 C 25.1429 6.0567 62.1217 0
M  V30 8 N 28.2734 6.0015 64.1428 0
M  V30 9 C 26.9527 4.0225 63.8552 0
M  V30 10 C 24.2986 4.8277 62.0994 0
M  V30 11 C 29.1109 5.2741 64.9131 0
M  V30 12 C 27.8719 3.3854 64.6732 0
M  V30 13 N 28.9527 3.9776 65.2092 0
M  V30 14 N 30.1979 5.8706 65.4639 0
M  V30 15 C 30.7714 7.1551 65.3823 0
M  V30 16 C 31.7422 7.521 66.3128 0
M  V30 17 C 30.3556 8.0728 64.4238 0
M  V30 18 C 32.2962 8.7895 66.286 0
M  V30 19 C 30.9072 9.3416 64.3791 0
M  V30 20 C 31.8899 9.6934 65.3078 0
M  V30 21 N 32.5696 11.0084 65.2111 0
M  V30 22 C 33.938 10.8995 64.6207 0
M  V30 23 C 31.7604 12.054 64.5182 0
M  V30 24 H 24.4229 9.418 60.5952 0
M  V30 25 H 26.0811 10.0062 61.2722 0
M  V30 26 H 26.0968 3.5142 63.4363 0
M  V30 27 H 23.3954 5.0136 61.4994 0
M  V30 28 H 24.8694 3.9991 61.6561 0
M  V30 29 H 24.0075 4.5643 63.1271 0
M  V30 30 H 27.7086 2.3415 64.8955 0
M  V30 31 H 30.836 5.2016 65.8447 0
M  V30 32 H 32.0643 6.8107 67.0596 0
M  V30 33 H 29.5958 7.7934 63.7088 0
M  V30 34 H 33.037 9.0756 67.0178 0
M  V30 35 H 30.5812 10.0525 63.6341 0
M  V30 36 H 34.397 11.898 64.5713 0
M  V30 37 H 34.5568 10.2423 65.2489 0
M  V30 38 H 33.8673 10.478 63.6073 0
M  V30 39 H 32.3278 12.9958 64.4858 0
M  V30 40 H 31.5374 11.7247 63.4927 0
M  V30 41 H 30.8193 12.2118 65.0654 0
M  V30 END ATOM
M  V30 BEGIN BOND
M  V30 1 1 1 2
M  V30 2 1 1 3
M  V30 3 2 2 4
M  V30 4 1 2 5
M  V30 5 1 3 6
M  V30 6 2 3 7
M  V30 7 2 6 8
M  V30 8 1 6 9
M  V30 9 1 7 10
M  V30 10 1 8 11
M  V30 11 2 9 12
M  V30 12 2 11 13
M  V30 13 1 11 14
M  V30 14 1 14 15
M  V30 15 2 15 16
M  V30 16 1 15 17
M  V30 17 1 16 18
M  V30 18 2 17 19
M  V30 19 2 18 20
M  V30 20 1 20 21
M  V30 21 1 21 22
M  V30 22 1 21 23
M  V30 23 1 4 7
M  V30 24 1 12 13
M  V30 25 1 19 20
M  V30 26 1 5 24
M  V30 27 1 5 25
M  V30 28 1 9 26
M  V30 29 1 10 27
M  V30 30 1 10 28
M  V30 31 1 10 29
M  V30 32 1 12 30
M  V30 33 1 14 31
M  V30 34 1 16 32
M  V30 35 1 17 33
M  V30 36 1 18 34
M  V30 37 1 19 35
M  V30 38 1 22 36
M  V30 39 1 22 37
M  V30 40 1 22 38
M  V30 41 1 23 39
M  V30 42 1 23 40
M  V30 43 1 23 41
M  V30 END BOND
M  V30 END CTAB
M  END
>  <Molecule Name>
WGPQOBMGPFXDSX-XFDRBGHPNA-N

>  <hs_clash>
0.0

>  <hs_total>
50.01766329748173

>  <Total Molweight>
326.427

>  <cLogP>
3.2279

>  <H-Acceptors>
6

>  <H-Donors>
2

>  <Polar Surface Area>
108.2

>  <Non-H Atoms>
23

>  <sp3-Atoms>
3

$$$$
AKFVRSQELXTCFW-IGVQRHPJNA-O
Actelion Java MolfileCreator 2.0

  0  0  0  0  0  0              0 V3000
M  V30 BEGIN CTAB
M  V30 COUNTS 38 40 0 0 0
M  V30 BEGIN ATOM
M  V30 1 S 32.9179 11.2214 64.8076 0
M  V30 2 O 32.2395 12.404 65.2671 0
M  V30 3 O 34.0176 10.9287 65.6876 0
M  V30 4 N 33.4677 11.4652 63.3247 0
M  V30 5 C 31.792 9.8687 64.8042 0
M  V30 6 C 30.7527 9.8441 63.8827 0
M  V30 7 C 31.9177 8.8489 65.7444 0
M  V30 8 C 29.846 8.7968 63.8938 0
M  V30 9 C 31.0111 7.7915 65.7496 0
M  V30 10 C 29.9776 7.767 64.8187 0
M  V30 11 C 28.9755 6.6552 64.8113 0
M  V30 12 O 27.8593 6.6235 64.0237 0
M  V30 13 C 28.9761 5.5152 65.6085 0
M  V30 14 C 27.1761 5.4646 64.2658 0
M  V30 15 C 27.8522 4.7689 65.2666 0
M  V30 16 C 25.9075 5.0741 63.6067 0
M  V30 17 C 25.4395 5.8045 62.5776 0
M  V30 18 C 25.2287 3.7874 63.9918 0
M  V30 19 S 26.2784 7.039 61.8575 0
M  V30 20 C 24.236 5.5755 61.9152 0
M  V30 21 C 25.0836 7.2713 60.7297 0
M  V30 22 O 23.42 4.7157 62.2352 0
M  V30 23 N 24.0647 6.4198 60.8897 0
M  V30 24 N 25.1357 8.1521 59.8159 0 CHG=1
M  V30 25 H 32.7024 11.6687 62.7142 0
M  V30 26 H 34.2967 10.9243 63.1835 0
M  V30 27 H 30.6516 10.6398 63.1593 0
M  V30 28 H 32.7179 8.8781 66.4692 0
M  V30 29 H 29.0342 8.7801 63.1817 0
M  V30 30 H 31.1097 6.9953 66.4723 0
M  V30 31 H 29.7124 5.2572 66.355 0
M  V30 32 H 27.5578 3.8237 65.698 0
M  V30 33 H 24.308 3.6672 63.402 0
M  V30 34 H 25.9045 2.9428 63.7931 0
M  V30 35 H 24.9772 3.8118 65.0627 0
M  V30 36 H 23.2556 6.4141 60.3022 0
M  V30 37 H 25.9305 8.755 59.7474 0
M  V30 38 H 24.3819 8.2427 59.165 0
M  V30 END ATOM
M  V30 BEGIN BOND
M  V30 1 2 1 2
M  V30 2 2 1 3
M  V30 3 1 1 4
M  V30 4 1 1 5
M  V30 5 2 5 6
M  V30 6 1 5 7
M  V30 7 1 6 8
M  V30 8 2 7 9
M  V30 9 2 8 10
M  V30 10 1 10 11
M  V30 11 1 11 12
M  V30 12 2 11 13
M  V30 13 1 12 14
M  V30 14 1 13 15
M  V30 15 1 14 16
M  V30 16 2 16 17
M  V30 17 1 16 18
M  V30 18 1 17 19
M  V30 19 1 17 20
M  V30 20 1 19 21
M  V30 21 2 20 22
M  V30 22 1 20 23
M  V30 23 2 21 24
M  V30 24 1 9 10
M  V30 25 2 14 15
M  V30 26 1 21 23
M  V30 27 1 4 25
M  V30 28 1 4 26
M  V30 29 1 6 27
M  V30 30 1 7 28
M  V30 31 1 8 29
M  V30 32 1 9 30
M  V30 33 1 13 31
M  V30 34 1 15 32
M  V30 35 1 18 33
M  V30 36 1 18 34
M  V30 37 1 18 35
M  V30 38 1 23 36
M  V30 39 1 24 37
M  V30 40 1 24 38
M  V30 END BOND
M  V30 END CTAB
M  END
>  <Molecule Name>
AKFVRSQELXTCFW-IGVQRHPJNA-O

>  <hs_clash>
3.0

>  <hs_total>
48.590025771474785

>  <Total Molweight>
364.425

>  <cLogP>
1.5961

>  <H-Acceptors>
7

>  <H-Donors>
3

>  <Polar Surface Area>
161.67

>  <Non-H Atoms>
24

>  <sp3-Atoms>
3

$$$$
VIUGBRHEHAGOFV-AZWJGROBNA-N
Actelion Java MolfileCreator 2.0

  0  0  0  0  0  0              0 V3000
M  V30 BEGIN CTAB
M  V30 COUNTS 46 48 0 0 0
M  V30 BEGIN ATOM
M  V30 1 O 29.0811 5.4093 66.3433 0
M  V30 2 C 28.4556 5.9302 65.2297 0
M  V30 3 C 28.9566 7.0762 64.5429 0
M  V30 4 C 27.2746 5.2598 64.7912 0
M  V30 5 C 30.2172 7.7968 65.0092 0
M  V30 6 C 28.2061 7.5082 63.394 0
M  V30 7 C 26.5561 5.7125 63.6469 0
M  V30 8 N 30.9536 7.3873 66.1392 0
M  V30 9 C 30.7155 8.9307 64.3393 0
M  V30 10 C 27.0322 6.85 62.9439 0
M  V30 11 C 32.0601 8.0521 66.5398 0
M  V30 12 C 31.8918 9.573 64.8297 0
M  V30 13 N 26.3777 7.3027 61.8164 0
M  V30 14 N 32.5563 9.1317 65.9255 0
M  V30 15 N 32.7325 7.661 67.6089 0
M  V30 16 C 32.485 10.8098 64.1779 0
M  V30 17 C 25.1168 8.0606 61.8506 0
M  V30 18 C 26.8991 7.0583 60.4645 0
M  V30 19 C 31.5955 11.3128 63.0235 0
M  V30 20 C 33.9119 10.5153 63.683 0
M  V30 21 C 24.8372 8.3107 60.3561 0 CFG=1
M  V30 22 C 25.6633 7.2535 59.598 0 CFG=1
M  V30 23 O 23.4575 8.1681 60.0419 0
M  V30 24 O 25.983 7.7444 58.3067 0
M  V30 25 H 29.8505 5.9285 66.5468 0
M  V30 26 H 26.9199 4.3966 65.335 0
M  V30 27 H 28.552 8.3739 62.849 0
M  V30 28 H 25.664 5.1989 63.3199 0
M  V30 29 H 30.2117 9.3112 63.4627 0
M  V30 30 H 33.5151 8.267 67.7513 0
M  V30 31 H 32.1349 7.6956 68.4104 0
M  V30 32 H 32.5435 11.6062 64.9348 0
M  V30 33 H 24.3111 7.4714 62.3128 0
M  V30 34 H 25.2371 9.0082 62.3965 0
M  V30 35 H 27.6859 7.7818 60.2045 0
M  V30 36 H 27.2947 6.0363 60.3695 0
M  V30 37 H 30.5826 11.5161 63.4021 0
M  V30 38 H 32.0231 12.2366 62.6069 0
M  V30 39 H 31.5457 10.5446 62.2379 0
M  V30 40 H 34.5257 10.1589 64.5236 0
M  V30 41 H 33.8762 9.7422 62.9014 0
M  V30 42 H 34.3538 11.4342 63.2702 0
M  V30 43 H 25.1981 9.3135 60.0846 0
M  V30 44 H 25.0952 6.3134 59.5405 0
M  V30 45 H 23.3474 8.1533 59.0984 0
M  V30 46 H 25.462 8.5175 58.1232 0
M  V30 END ATOM
M  V30 BEGIN BOND
M  V30 1 1 1 2
M  V30 2 2 2 3
M  V30 3 1 2 4
M  V30 4 1 3 5
M  V30 5 1 3 6
M  V30 6 2 4 7
M  V30 7 2 5 8
M  V30 8 1 5 9
M  V30 9 2 6 10
M  V30 10 1 8 11
M  V30 11 2 9 12
M  V30 12 1 10 13
M  V30 13 2 11 14
M  V30 14 1 11 15
M  V30 15 1 12 16
M  V30 16 1 13 17
M  V30 17 1 13 18
M  V30 18 1 16 19
M  V30 19 1 16 20
M  V30 20 1 17 21
M  V30 21 1 18 22
M  V30 22 1 21 23
M  V30 23 1 22 24
M  V30 24 1 7 10
M  V30 25 1 12 14
M  V30 26 1 21 22
M  V30 27 1 1 25
M  V30 28 1 4 26
M  V30 29 1 6 27
M  V30 30 1 7 28
M  V30 31 1 9 29
M  V30 32 1 15 30
M  V30 33 1 15 31
M  V30 34 1 16 32
M  V30 35 1 17 33
M  V30 36 1 17 34
M  V30 37 1 18 35
M  V30 38 1 18 36
M  V30 39 1 19 37
M  V30 40 1 19 38
M  V30 41 1 19 39
M  V30 42 1 20 40
M  V30 43 1 20 41
M  V30 44 1 20 42
M  V30 45 1 21 43
M  V30 46 1 22 44
M  V30 47 1 23 45
M  V30 48 1 24 46
M  V30 END BOND
M  V30 BEGIN COLLECTION
M  V30 MDLV30/STERAC1 ATOMS=(2 21 22)
M  V30 END COLLECTION
M  V30 END CTAB
M  END
>  <Molecule Name>
VIUGBRHEHAGOFV-AZWJGROBNA-N

>  <hs_clash>
0.0

>  <hs_total>
48.35418783344096

>  <Total Molweight>
330.387

>  <cLogP>
1.2209

>  <H-Acceptors>
7

>  <H-Donors>
4

>  <Polar Surface Area>
115.73

>  <Non-H Atoms>
24

>  <sp3-Atoms>
10

$$$$
OMZYUVOATZSGJY-NDKGDYFDNA-N
Actelion Java MolfileCreator 2.0

  0  0  0  0  0  0              0 V3000
M  V30 BEGIN CTAB
M  V30 COUNTS 14 15 0 0 0
M  V30 BEGIN ATOM
M  V30 1 Br 28.3829 5.6549 65.8387 0
M  V30 2 C 26.8444 6.0607 64.8538 0
M  V30 3 C 26.0384 5.0033 64.5492 0
M  V30 4 C 26.5299 7.3443 64.4473 0
M  V30 5 Br 26.5157 3.2559 65.1197 0
M  V30 6 C 24.9033 5.2429 63.823 0
M  V30 7 Br 27.6556 8.771 64.8881 0
M  V30 8 C 25.3895 7.6086 63.7185 0
M  V30 9 Br 23.8366 3.7818 63.4318 0
M  V30 10 C 24.5324 6.4965 63.3881 0
M  V30 11 N 24.867 8.7809 63.2083 0
M  V30 12 N 23.4404 6.9361 62.6648 0
M  V30 13 N 23.664 8.3456 62.5651 0
M  V30 14 H 23.0397 8.9675 62.0918 0
M  V30 END ATOM
M  V30 BEGIN BOND
M  V30 1 1 1 2
M  V30 2 1 2 3
M  V30 3 2 2 4
M  V30 4 1 3 5
M  V30 5 2 3 6
M  V30 6 1 4 7
M  V30 7 1 4 8
M  V30 8 1 6 9
M  V30 9 1 6 10
M  V30 10 2 8 11
M  V30 11 2 10 12
M  V30 12 1 11 13
M  V30 13 1 8 10
M  V30 14 1 12 13
M  V30 15 1 13 14
M  V30 END BOND
M  V30 END CTAB
M  END
>  <Molecule Name>
OMZYUVOATZSGJY-NDKGDYFDNA-N

>  <hs_clash>
0.0

>  <hs_total>
48.135205156453395

>  <Total Molweight>
434.711

>  <cLogP>
3.539

>  <H-Acceptors>
3

>  <H-Donors>
1

>  <Polar Surface Area>
41.57

>  <Non-H Atoms>
13

>  <sp3-Atoms>
0

$$$$
LESNOWHOOHPPHR-LLDOCCBONA-N
Actelion Java MolfileCreator 2.0

  0  0  0  0  0  0              0 V3000
M  V30 BEGIN CTAB
M  V30 COUNTS 24 25 0 0 0
M  V30 BEGIN ATOM
M  V30 1 F 24.5595 4.7567 61.758 0
M  V30 2 C 25.5567 4.5833 62.6617 0
M  V30 3 C 26.4875 5.6258 62.8988 0
M  V30 4 C 25.6658 3.3561 63.3564 0
M  V30 5 C 27.5684 5.4733 63.8511 0
M  V30 6 C 26.7037 3.1591 64.3002 0
M  V30 7 C 28.4677 6.5031 64.0438 0
M  V30 8 C 27.6699 4.1936 64.5751 0
M  V30 9 N 29.5051 6.3628 64.9353 0
M  V30 10 N 28.3697 7.6925 63.3462 0
M  V30 11 O 28.6002 4.0063 65.425 0
M  V30 12 C 30.4127 7.3455 65.136 0
M  V30 13 C 29.2896 8.6968 63.5434 0
M  V30 14 N 30.3083 8.5142 64.4402 0
M  V30 15 N 31.4144 7.1578 66.0191 0
M  V30 16 N 29.1937 9.8073 62.8898 0
M  V30 17 H 26.3886 6.5548 62.357 0
M  V30 18 H 24.9545 2.5657 63.1665 0
M  V30 19 H 26.7725 2.2169 64.8235 0
M  V30 20 H 28.7386 4.8024 65.9246 0
M  V30 21 H 31.3326 6.2487 66.428 0
M  V30 22 H 31.9915 7.9738 66.0476 0
M  V30 23 H 29.9399 10.4172 63.1566 0
M  V30 24 H 29.2489 9.6229 61.9086 0
M  V30 END ATOM
M  V30 BEGIN BOND
M  V30 1 1 1 2
M  V30 2 2 2 3
M  V30 3 1 2 4
M  V30 4 1 3 5
M  V30 5 2 4 6
M  V30 6 1 5 7
M  V30 7 2 5 8
M  V30 8 2 7 9
M  V30 9 1 7 10
M  V30 10 1 8 11
M  V30 11 1 9 12
M  V30 12 2 10 13
M  V30 13 2 12 14
M  V30 14 1 12 15
M  V30 15 1 13 16
M  V30 16 1 6 8
M  V30 17 1 13 14
M  V30 18 1 3 17
M  V30 19 1 4 18
M  V30 20 1 6 19
M  V30 21 1 11 20
M  V30 22 1 15 21
M  V30 23 1 15 22
M  V30 24 1 16 23
M  V30 25 1 16 24
M  V30 END BOND
M  V30 END CTAB
M  END
>  <Molecule Name>
LESNOWHOOHPPHR-LLDOCCBONA-N

>  <hs_clash>
0.0

>  <hs_total>
46.95893240868984

>  <Total Molweight>
221.195

>  <cLogP>
0.7552

>  <H-Acceptors>
6

>  <H-Donors>
3

>  <Polar Surface Area>
110.94

>  <Non-H Atoms>
16

>  <sp3-Atoms>
1

$$$$
QPFWOQDGUBRECV-VFGNDSCDNA-N
Actelion Java MolfileCreator 2.0

  0  0  0  0  0  0              0 V3000
M  V30 BEGIN CTAB
M  V30 COUNTS 51 54 0 0 0
M  V30 BEGIN ATOM
M  V30 1 S 33.3698 10.8072 64.6499 0
M  V30 2 O 33.6829 11.1064 65.727 0
M  V30 3 O 34.2687 10.3047 64.1208 0
M  V30 4 N 32.9512 11.7973 63.9803 0
M  V30 5 C 32.4211 9.8603 64.7452 0
M  V30 6 C 31.6692 9.7657 63.9708 0
M  V30 7 C 32.4341 9.1883 65.5961 0
M  V30 8 C 30.9139 8.9934 64.0543 0
M  V30 9 C 31.6819 8.4017 65.6599 0
M  V30 10 C 30.9084 8.3132 64.9046 0
M  V30 11 N 30.2137 7.5344 64.946 0
M  V30 12 N 29.3931 7.5282 64.4271 0
M  V30 13 C 28.731 6.721 64.4241 0
M  V30 14 C 28.8903 5.772 64.9238 0
M  V30 15 C 27.9064 6.5721 63.7337 0
M  V30 16 O 29.5902 5.5848 65.5519 0
M  V30 17 N 28.1746 5.09 64.6159 0
M  V30 18 C 27.5555 5.56 63.9123 0
M  V30 19 C 27.3559 7.2266 63.053 0
M  V30 20 C 26.6712 5.1986 63.4014 0
M  V30 21 C 26.4638 6.8512 62.5446 0
M  V30 22 C 26.1356 5.8311 62.7 0
M  V30 23 C 25.8206 7.5187 61.7971 0
M  V30 24 O 24.9096 7.2764 61.6188 0
M  V30 25 N 26.2698 8.3816 61.453 0
M  V30 26 C 25.7287 9.1103 60.7484 0
M  V30 27 C 25.582 10.162 61.2878 0
M  V30 28 C 26.6148 10.7224 61.4539 0
M  V30 29 N 27.036 11.4263 60.8215 0
M  V30 30 C 27.2445 10.6064 62.2646 0
M  V30 31 C 27.9268 11.741 61.2389 0
M  V30 32 N 28.0583 11.2305 62.1282 0
M  V30 33 H 32.75 11.5628 63.269 0
M  V30 34 H 32.6241 12.315 64.459 0
M  V30 35 H 31.6714 10.2858 63.3135 0
M  V30 36 H 33.013 9.2731 66.1967 0
M  V30 37 H 30.3279 8.9191 63.4593 0
M  V30 38 H 31.7011 7.8603 66.2998 0
M  V30 39 H 29.921 6.2148 65.7471 0
M  V30 40 H 28.1078 4.3579 64.8637 0
M  V30 41 H 27.6158 8.0131 62.9218 0
M  V30 42 H 26.3964 4.421 63.5506 0
M  V30 43 H 25.4734 5.5322 62.2816 0
M  V30 44 H 26.9948 8.5438 61.6776 0
M  V30 45 H 26.1934 9.2177 60.0411 0
M  V30 46 H 24.9644 8.7904 60.5418 0
M  V30 47 H 25.0764 10.6528 60.8048 0
M  V30 48 H 25.2116 10.0349 62.0474 0
M  V30 49 H 27.1177 10.0971 62.9187 0
M  V30 50 H 28.45 12.3097 60.9146 0
M  V30 51 H 38.1968 11.3929 68.5121 0
M  V30 END ATOM
M  V30 BEGIN BOND
M  V30 1 2 1 2
M  V30 2 2 1 3
M  V30 3 1 1 4
M  V30 4 1 1 5
M  V30 5 2 5 6
M  V30 6 1 5 7
M  V30 7 1 6 8
M  V30 8 2 7 9
M  V30 9 2 8 10
M  V30 10 1 10 11
M  V30 11 2 11 12
M  V30 12 1 12 13
M  V30 13 2 13 14
M  V30 14 1 13 15
M  V30 15 1 14 16
M  V30 16 1 14 17
M  V30 17 2 15 18
M  V30 18 1 15 19
M  V30 19 1 18 20
M  V30 20 2 19 21
M  V30 21 2 20 22
M  V30 22 1 21 23
M  V30 23 2 23 24
M  V30 24 1 23 25
M  V30 25 1 25 26
M  V30 26 1 26 27
M  V30 27 1 27 28
M  V30 28 1 28 29
M  V30 29 2 28 30
M  V30 30 2 29 31
M  V30 31 1 30 32
M  V30 32 1 9 10
M  V30 33 1 17 18
M  V30 34 1 21 22
M  V30 35 1 31 32
M  V30 36 1 4 33
M  V30 37 1 4 34
M  V30 38 1 6 35
M  V30 39 1 7 36
M  V30 40 1 8 37
M  V30 41 1 9 38
M  V30 42 1 16 39
M  V30 43 1 17 40
M  V30 44 1 19 41
M  V30 45 1 20 42
M  V30 46 1 22 43
M  V30 47 1 25 44
M  V30 48 1 26 45
M  V30 49 1 26 46
M  V30 50 1 27 47
M  V30 51 1 27 48
M  V30 52 1 30 49
M  V30 53 1 31 50
M  V30 54 1 32 51
M  V30 END BOND
M  V30 END CTAB
M  END
>  <Molecule Name>
QPFWOQDGUBRECV-VFGNDSCDNA-N

>  <hs_clash>
2.0

>  <hs_total>
46.63996031515513

>  <Total Molweight>
453.482

>  <cLogP>
2.1721

>  <H-Acceptors>
11

>  <H-Donors>
5

>  <Polar Surface Area>
187.06

>  <Non-H Atoms>
32

>  <sp3-Atoms>
4

$$$$
ZKHQWZAMYRWXGA-SJUUOGGDNA-J
Actelion Java MolfileCreator 2.0

  0  0  0  0  0  0              0 V3000
M  V30 BEGIN CTAB
M  V30 COUNTS 43 45 0 0 0
M  V30 BEGIN ATOM
M  V30 1 P 21.0141 10.4242 59.1482 0 CFG=2
M  V30 2 O 21.446 10.2753 57.7224 0
M  V30 3 O 21.3845 9.1138 60.049 0
M  V30 4 O 21.9443 11.6082 59.7367 0
M  V30 5 O 19.5465 10.6774 59.4088 0 CHG=-1
M  V30 6 P 22.832 8.3819 60.1105 0 CFG=2
M  V30 7 P 22.8546 12.5954 58.8253 0
M  V30 8 O 23.6995 8.8374 58.961 0
M  V30 9 O 23.3924 9.0067 61.4956 0
M  V30 10 O 22.5706 6.9071 60.3359 0 CHG=-1
M  V30 11 O 23.2841 13.6794 59.7849 0
M  V30 12 O 21.9246 13.0823 57.7398 0 CHG=-1
M  V30 13 O 23.9965 11.721 58.3533 0 CHG=-1
M  V30 14 C 23.9576 10.3219 61.5089 0
M  V30 15 C 25.384 10.3213 62.0449 0 CFG=2
M  V30 16 O 25.3911 9.8342 63.3957 0
M  V30 17 C 26.3619 9.4549 61.2569 0 CFG=2
M  V30 18 C 26.5253 8.9827 63.6123 0 CFG=1
M  V30 19 O 27.049 10.1389 60.1986 0
M  V30 20 C 27.3447 9.0339 62.3295 0 CFG=1
M  V30 21 N 26.1548 7.5459 63.7635 0
M  V30 22 O 28.4021 9.9859 62.4487 0
M  V30 23 C 26.8703 6.6406 64.4377 0
M  V30 24 C 25.0915 6.9148 63.2222 0
M  V30 25 N 28.0028 6.683 65.1731 0
M  V30 26 C 26.1622 5.3497 64.3105 0
M  V30 27 N 25.0773 5.5923 63.5495 0
M  V30 28 C 28.4914 5.582 65.7754 0
M  V30 29 C 26.7734 4.1743 64.999 0
M  V30 30 N 27.9166 4.3683 65.6962 0
M  V30 31 N 26.2202 2.9437 64.936 0
M  V30 32 H 23.9634 10.7169 60.4823 0
M  V30 33 H 23.338 10.9694 62.1472 0
M  V30 34 H 25.7558 11.3567 62.0304 0
M  V30 35 H 25.836 8.5692 60.8709 0
M  V30 36 H 27.1298 9.3221 64.4664 0
M  V30 37 H 27.412 9.5029 59.5935 0
M  V30 38 H 27.7384 8.0325 62.1014 0
M  V30 39 H 28.8227 10.1 61.6049 0
M  V30 40 H 24.3455 7.3975 62.6084 0
M  V30 41 H 29.3975 5.6788 66.3553 0
M  V30 42 H 26.6553 2.1757 65.4059 0
M  V30 43 H 25.376 2.8009 64.4195 0
M  V30 END ATOM
M  V30 BEGIN BOND
M  V30 1 2 1 2
M  V30 2 1 1 3
M  V30 3 1 1 4
M  V30 4 1 1 5
M  V30 5 1 3 6
M  V30 6 1 4 7
M  V30 7 2 6 8
M  V30 8 1 6 9
M  V30 9 1 6 10
M  V30 10 2 7 11
M  V30 11 1 7 12
M  V30 12 1 7 13
M  V30 13 1 9 14
M  V30 14 1 14 15
M  V30 15 1 15 16
M  V30 16 1 15 17
M  V30 17 1 16 18
M  V30 18 1 17 19
M  V30 19 1 17 20
M  V30 20 1 18 21
M  V30 21 1 20 22
M  V30 22 1 21 23
M  V30 23 1 21 24
M  V30 24 2 23 25
M  V30 25 1 23 26
M  V30 26 2 24 27
M  V30 27 1 25 28
M  V30 28 2 26 29
M  V30 29 2 28 30
M  V30 30 1 29 31
M  V30 31 1 18 20
M  V30 32 1 26 27
M  V30 33 1 29 30
M  V30 34 1 14 32
M  V30 35 1 14 33
M  V30 36 1 15 34
M  V30 37 1 17 35
M  V30 38 1 18 36
M  V30 39 1 19 37
M  V30 40 1 20 38
M  V30 41 1 22 39
M  V30 42 1 24 40
M  V30 43 1 28 41
M  V30 44 1 31 42
M  V30 45 1 31 43
M  V30 END BOND
M  V30 BEGIN COLLECTION
M  V30 MDLV30/STERAC1 ATOMS=(6 1 6 15 17 18 20)
M  V30 END COLLECTION
M  V30 END CTAB
M  END
>  <Molecule Name>
ZKHQWZAMYRWXGA-SJUUOGGDNA-J

>  <hs_clash>
21.0

>  <hs_total>
45.53387470519036

>  <Total Molweight>
503.149

>  <cLogP>
-15.06

>  <H-Acceptors>
18

>  <H-Donors>
3

>  <Polar Surface Area>
319.88

>  <Non-H Atoms>
31

>  <sp3-Atoms>
18

$$$$
ZUZDKICRQXWQSH-QPJQQBGINA-N
Actelion Java MolfileCreator 2.0

  0  0  0  0  0  0              0 V3000
M  V30 BEGIN CTAB
M  V30 COUNTS 43 47 0 0 0
M  V30 BEGIN ATOM
M  V30 1 S 33.7638 11.2624 64.4865 0
M  V30 2 O 33.8354 12.6722 64.2092 0
M  V30 3 O 34.8027 10.3759 64.0449 0
M  V30 4 C 32.2228 10.5561 63.9253 0
M  V30 5 C 33.3389 10.8966 66.2088 0
M  V30 6 C 31.7675 9.5568 64.9166 0
M  V30 7 C 32.339 9.7883 66.2501 0
M  V30 8 C 30.8887 8.4155 64.6641 0
M  V30 9 C 31.9455 8.9396 67.3998 0
M  V30 10 C 30.4983 7.5141 65.7985 0
M  V30 11 C 31.0373 7.7919 67.1609 0
M  V30 12 N 29.6723 6.4231 65.6566 0
M  V30 13 C 28.4059 6.3904 64.8917 0
M  V30 14 C 27.6124 5.3648 64.5027 0
M  V30 15 C 27.595 3.9471 64.9773 0
M  V30 16 C 26.5275 5.386 63.5437 0
M  V30 17 O 28.4463 3.471 65.7122 0
M  V30 18 N 26.5046 3.2902 64.4537 0
M  V30 19 C 25.8212 4.1176 63.6026 0
M  V30 20 C 26.108 6.441 62.5954 0
M  V30 21 C 24.5958 3.8911 62.7961 0
M  V30 22 C 24.8874 6.2723 61.7451 0
M  V30 23 C 24.1142 4.9886 61.9028 0
M  V30 24 C 24.4359 7.321 60.8402 0
M  V30 25 O 23.1163 7.5362 60.5325 0
M  V30 26 C 25.2083 8.303 60.135 0
M  V30 27 C 23.0934 8.7237 59.8466 0
M  V30 28 N 24.3391 9.1384 59.5255 0
M  V30 29 H 32.3725 10.069 62.9508 0
M  V30 30 H 31.4666 11.3495 63.8265 0
M  V30 31 H 34.2449 10.5937 66.7539 0
M  V30 32 H 32.9107 11.7943 66.6798 0
M  V30 33 H 30.5224 8.2224 63.6668 0
M  V30 34 H 32.3129 9.153 68.3929 0
M  V30 35 H 30.7629 7.149 67.984 0
M  V30 36 H 28.049 7.3636 64.5877 0
M  V30 37 H 28.738 4.132 66.3296 0
M  V30 38 H 26.2488 2.3468 64.6641 0
M  V30 39 H 26.691 7.3468 62.5154 0
M  V30 40 H 24.0633 2.9532 62.8534 0
M  V30 41 H 23.1908 4.8588 61.358 0
M  V30 42 H 26.2859 8.3635 60.0987 0
M  V30 43 H 22.1911 9.2616 59.5942 0
M  V30 END ATOM
M  V30 BEGIN BOND
M  V30 1 2 1 2
M  V30 2 2 1 3
M  V30 3 1 1 4
M  V30 4 1 1 5
M  V30 5 1 4 6
M  V30 6 1 5 7
M  V30 7 1 6 8
M  V30 8 1 7 9
M  V30 9 2 8 10
M  V30 10 2 9 11
M  V30 11 1 10 12
M  V30 12 2 12 13
M  V30 13 1 13 14
M  V30 14 2 14 15
M  V30 15 1 14 16
M  V30 16 1 15 17
M  V30 17 1 15 18
M  V30 18 2 16 19
M  V30 19 1 16 20
M  V30 20 1 19 21
M  V30 21 2 20 22
M  V30 22 2 21 23
M  V30 23 1 22 24
M  V30 24 1 24 25
M  V30 25 2 24 26
M  V30 26 1 25 27
M  V30 27 1 26 28
M  V30 28 2 6 7
M  V30 29 1 10 11
M  V30 30 1 18 19
M  V30 31 1 22 23
M  V30 32 2 27 28
M  V30 33 1 4 29
M  V30 34 1 4 30
M  V30 35 1 5 31
M  V30 36 1 5 32
M  V30 37 1 8 33
M  V30 38 1 9 34
M  V30 39 1 11 35
M  V30 40 1 13 36
M  V30 41 1 17 37
M  V30 42 1 18 38
M  V30 43 1 20 39
M  V30 44 1 21 40
M  V30 45 1 23 41
M  V30 46 1 26 42
M  V30 47 1 27 43
M  V30 END BOND
M  V30 END CTAB
M  END
>  <Molecule Name>
ZUZDKICRQXWQSH-QPJQQBGINA-N

>  <hs_clash>
5.0

>  <hs_total>
45.34012184275444

>  <Total Molweight>
393.422

>  <cLogP>
3.1295

>  <H-Acceptors>
7

>  <H-Donors>
2

>  <Polar Surface Area>
116.93

>  <Non-H Atoms>
28

>  <sp3-Atoms>
4

$$$$
BUKMSYYNNHEANR-SCHLAJRVNA-M
Actelion Java MolfileCreator 2.0

  0  0  0  0  0  0              0 V3000
M  V30 BEGIN CTAB
M  V30 COUNTS 36 38 0 0 0
M  V30 BEGIN ATOM
M  V30 1 O 32.9714 11.022 65.5425 0
M  V30 2 C 33.2875 9.9994 66.2113 0
M  V30 3 O 34.2704 10.0408 67.0125 0 CHG=-1
M  V30 4 C 32.5133 8.729 66.0904 0
M  V30 5 C 32.6513 7.8147 67.1155 0
M  V30 6 C 31.6787 8.4467 65.0084 0
M  V30 7 C 31.9746 6.6137 67.0921 0
M  V30 8 C 30.9849 7.2307 64.9828 0
M  V30 9 C 31.1374 6.3179 66.0314 0
M  V30 10 N 30.4842 5.0469 66.1084 0
M  V30 11 C 29.3979 4.621 65.2858 0
M  V30 12 N 28.7841 5.5052 64.4987 0
M  V30 13 N 29.0218 3.3382 65.3221 0
M  V30 14 C 27.7706 5.1314 63.7005 0
M  V30 15 C 28.0068 2.8882 64.5638 0
M  V30 16 N 27.1755 6.1282 62.8573 0
M  V30 17 C 27.3608 3.7955 63.7207 0
M  V30 18 C 26.0004 5.9447 62.0613 0
M  V30 19 C 24.8453 5.4102 62.6184 0
M  V30 20 C 25.9961 6.3453 60.732 0
M  V30 21 C 23.6922 5.2365 61.8618 0
M  V30 22 C 24.8342 6.1837 59.9823 0
M  V30 23 C 23.6797 5.628 60.5277 0
M  V30 24 H 33.2993 8.0439 67.9487 0
M  V30 25 H 31.5693 9.1564 64.2019 0
M  V30 26 H 32.0976 5.9066 67.8992 0
M  V30 27 H 30.3326 6.9981 64.1541 0
M  V30 28 H 30.9737 4.3278 66.6014 0
M  V30 29 H 27.6989 1.8539 64.6056 0
M  V30 30 H 27.2752 7.0588 63.2101 0
M  V30 31 H 26.5497 3.4665 63.0879 0
M  V30 32 H 24.8431 5.1241 63.6599 0
M  V30 33 H 26.8806 6.776 60.2865 0
M  V30 34 H 22.8107 4.7997 62.3076 0
M  V30 35 H 24.8279 6.4984 58.9492 0
M  V30 36 H 22.7916 5.5032 59.9261 0
M  V30 END ATOM
M  V30 BEGIN BOND
M  V30 1 2 1 2
M  V30 2 1 2 3
M  V30 3 1 2 4
M  V30 4 2 4 5
M  V30 5 1 4 6
M  V30 6 1 5 7
M  V30 7 2 6 8
M  V30 8 2 7 9
M  V30 9 1 9 10
M  V30 10 1 10 11
M  V30 11 2 11 12
M  V30 12 1 11 13
M  V30 13 1 12 14
M  V30 14 2 13 15
M  V30 15 1 14 16
M  V30 16 2 14 17
M  V30 17 1 16 18
M  V30 18 2 18 19
M  V30 19 1 18 20
M  V30 20 1 19 21
M  V30 21 2 20 22
M  V30 22 2 21 23
M  V30 23 1 8 9
M  V30 24 1 15 17
M  V30 25 1 22 23
M  V30 26 1 5 24
M  V30 27 1 6 25
M  V30 28 1 7 26
M  V30 29 1 8 27
M  V30 30 1 10 28
M  V30 31 1 15 29
M  V30 32 1 16 30
M  V30 33 1 17 31
M  V30 34 1 19 32
M  V30 35 1 20 33
M  V30 36 1 21 34
M  V30 37 1 22 35
M  V30 38 1 23 36
M  V30 END BOND
M  V30 END CTAB
M  END
>  <Molecule Name>
BUKMSYYNNHEANR-SCHLAJRVNA-M

>  <hs_clash>
3.0

>  <hs_total>
44.32766005527787

>  <Total Molweight>
305.316

>  <cLogP>
0.9464

>  <H-Acceptors>
6

>  <H-Donors>
2

>  <Polar Surface Area>
89.97

>  <Non-H Atoms>
23

>  <sp3-Atoms>
1

$$$$
XMPHNZMDLSUDQI-UHFFFAOYNA-N
Actelion Java MolfileCreator 2.0

  0  0  0  0  0  0              0 V3000
M  V30 BEGIN CTAB
M  V30 COUNTS 30 33 0 0 0
M  V30 BEGIN ATOM
M  V30 1 Br 23.2399 6.7549 61.3921 0
M  V30 2 C 24.3593 5.6959 62.4002 0
M  V30 3 C 25.5675 6.2453 62.8896 0
M  V30 4 C 23.9983 4.3573 62.6426 0
M  V30 5 C 26.3751 5.4027 63.6781 0
M  V30 6 C 24.826 3.5386 63.4267 0
M  V30 7 C 27.6965 5.5613 64.3859 0
M  V30 8 C 25.9534 4.0805 63.9383 0
M  V30 9 C 27.9199 4.2729 65.0873 0
M  V30 10 C 28.5326 6.5663 64.4739 0
M  V30 11 N 26.9227 3.4029 64.6994 0
M  V30 12 O 28.9561 3.9385 65.7069 0
M  V30 13 N 29.7381 6.5015 65.1927 0
M  V30 14 C 28.4465 7.9749 63.8951 0
M  V30 15 C 30.3926 7.7378 65.0902 0
M  V30 16 O 27.5534 8.4192 63.2039 0
M  V30 17 C 29.6793 8.6607 64.3407 0
M  V30 18 C 31.6553 8.0713 65.6861 0
M  V30 19 C 30.1069 9.9577 64.128 0
M  V30 20 C 32.1029 9.3932 65.471 0
M  V30 21 C 31.3536 10.311 64.6977 0
M  V30 22 H 25.8569 7.2625 62.6694 0
M  V30 23 H 23.0848 3.9602 62.2254 0
M  V30 24 H 24.5695 2.5066 63.6154 0
M  V30 25 H 26.8927 2.4296 64.9266 0
M  V30 26 H 29.4729 4.7116 65.9015 0
M  V30 27 H 32.2258 7.3576 66.2618 0
M  V30 28 H 29.5211 10.6639 63.5578 0
M  V30 29 H 33.0385 9.7111 65.9068 0
M  V30 30 H 31.7424 11.3058 64.538 0
M  V30 END ATOM
M  V30 BEGIN BOND
M  V30 1 1 1 2
M  V30 2 2 2 3
M  V30 3 1 2 4
M  V30 4 1 3 5
M  V30 5 2 4 6
M  V30 6 1 5 7
M  V30 7 2 5 8
M  V30 8 2 7 9
M  V30 9 1 7 10
M  V30 10 1 8 11
M  V30 11 1 9 12
M  V30 12 2 10 13
M  V30 13 1 10 14
M  V30 14 1 13 15
M  V30 15 2 14 16
M  V30 16 1 14 17
M  V30 17 1 15 18
M  V30 18 1 17 19
M  V30 19 2 18 20
M  V30 20 2 19 21
M  V30 21 1 6 8
M  V30 22 1 9 11
M  V30 23 2 15 17
M  V30 24 1 20 21
M  V30 25 1 3 22
M  V30 26 1 4 23
M  V30 27 1 6 24
M  V30 28 1 11 25
M  V30 29 1 12 26
M  V30 30 1 18 27
M  V30 31 1 19 28
M  V30 32 1 20 29
M  V30 33 1 21 30
M  V30 END BOND
M  V30 END CTAB
M  END
>  <Molecule Name>
XMPHNZMDLSUDQI-UHFFFAOYNA-N

>  <hs_clash>
0.0

>  <hs_total>
44.13986539215104

>  <Total Molweight>
341.163

>  <cLogP>
3.2679

>  <H-Acceptors>
4

>  <H-Donors>
2

>  <Polar Surface Area>
65.45

>  <Non-H Atoms>
21

>  <sp3-Atoms>
1

$$$$
XTWYTFMLZFPYCI-OIMFJFGUNA-K
Actelion Java MolfileCreator 2.0

  0  0  0  0  0  0              0 V3000
M  V30 BEGIN CTAB
M  V30 COUNTS 39 41 0 0 0
M  V30 BEGIN ATOM
M  V30 1 P 22.7556 7.9434 60.6726 0 CFG=2
M  V30 2 O 23.6623 8.267 59.5104 0
M  V30 3 O 21.2711 8.5416 60.3964 0
M  V30 4 O 23.2235 8.7639 61.9837 0
M  V30 5 O 22.5816 6.4817 61.0184 0 CHG=-1
M  V30 6 P 20.9172 10.059 59.9448 0
M  V30 7 C 23.9388 9.9958 61.8979 0
M  V30 8 O 19.5772 9.8874 59.2585 0
M  V30 9 O 20.8411 10.857 61.2327 0 CHG=-1
M  V30 10 O 22.0562 10.4589 59.0225 0 CHG=-1
M  V30 11 C 25.3725 9.7312 62.3651 0 CFG=1
M  V30 12 O 25.6288 9.4521 63.748 0
M  V30 13 C 26.4995 9.2457 61.4558 0 CFG=1
M  V30 14 C 26.8279 8.6844 63.8043 0 CFG=2
M  V30 15 O 26.9789 10.2733 60.5896 0
M  V30 16 C 27.5408 8.7957 62.4595 0 CFG=2
M  V30 17 N 26.5454 7.2354 63.9601 0
M  V30 18 O 28.6035 9.7459 62.5267 0
M  V30 19 C 27.3614 6.3693 64.5679 0
M  V30 20 C 25.4722 6.5644 63.4793 0
M  V30 21 N 28.5511 6.4579 65.2138 0
M  V30 22 C 26.704 5.0607 64.4535 0
M  V30 23 N 25.5506 5.2471 63.7853 0
M  V30 24 C 29.135 5.3728 65.7495 0
M  V30 25 C 27.4065 3.9089 65.0609 0
M  V30 26 N 28.5933 4.1434 65.6743 0
M  V30 27 N 26.8577 2.6743 64.9896 0
M  V30 28 H 23.943 10.3554 60.8583 0
M  V30 29 H 23.4664 10.7501 62.5447 0
M  V30 30 H 25.6854 10.7856 62.3893 0
M  V30 31 H 26.1505 8.3788 60.8758 0
M  V30 32 H 27.4905 9.0356 64.6093 0
M  V30 33 H 27.7354 9.9567 60.1106 0
M  V30 34 H 27.9233 7.8061 62.1696 0
M  V30 35 H 28.9998 9.8396 61.6685 0
M  V30 36 H 24.6627 7.0181 62.9268 0
M  V30 37 H 30.078 5.4926 66.2619 0
M  V30 38 H 27.4566 2.0161 65.4455 0
M  V30 39 H 25.9877 2.7234 64.4987 0
M  V30 END ATOM
M  V30 BEGIN BOND
M  V30 1 2 1 2
M  V30 2 1 1 3
M  V30 3 1 1 4
M  V30 4 1 1 5
M  V30 5 1 3 6
M  V30 6 1 4 7
M  V30 7 2 6 8
M  V30 8 1 6 9
M  V30 9 1 6 10
M  V30 10 1 7 11
M  V30 11 1 11 12
M  V30 12 1 11 13
M  V30 13 1 12 14
M  V30 14 1 13 15
M  V30 15 1 13 16
M  V30 16 1 14 17
M  V30 17 1 16 18
M  V30 18 1 17 19
M  V30 19 1 17 20
M  V30 20 2 19 21
M  V30 21 1 19 22
M  V30 22 2 20 23
M  V30 23 1 21 24
M  V30 24 2 22 25
M  V30 25 2 24 26
M  V30 26 1 25 27
M  V30 27 1 14 16
M  V30 28 1 22 23
M  V30 29 1 25 26
M  V30 30 1 7 28
M  V30 31 1 7 29
M  V30 32 1 11 30
M  V30 33 1 13 31
M  V30 34 1 14 32
M  V30 35 1 15 33
M  V30 36 1 16 34
M  V30 37 1 18 35
M  V30 38 1 20 36
M  V30 39 1 24 37
M  V30 40 1 27 38
M  V30 41 1 27 39
M  V30 END BOND
M  V30 BEGIN COLLECTION
M  V30 MDLV30/STERAC1 ATOMS=(5 1 11 13 14 16)
M  V30 END COLLECTION
M  V30 END CTAB
M  END
>  <Molecule Name>
XTWYTFMLZFPYCI-OIMFJFGUNA-K

>  <hs_clash>
0.0

>  <hs_total>
43.204140206666686

>  <Total Molweight>
424.178

>  <cLogP>
-11.354

>  <H-Acceptors>
15

>  <H-Donors>
3

>  <Polar Surface Area>
260.71

>  <Non-H Atoms>
27

>  <sp3-Atoms>
15

$$$$
HUQOAEIJTCFRKQ-PHEXNGOMNA-N
Actelion Java MolfileCreator 2.0

  0  0  0  0  0  0              0 V3000
M  V30 BEGIN CTAB
M  V30 COUNTS 49 51 0 0 0
M  V30 BEGIN ATOM
M  V30 1 S 33.4722 10.9532 64.6618 0
M  V30 2 O 33.8753 11.4174 66.0168 0
M  V30 3 O 34.6353 10.3001 64.0333 0
M  V30 4 N 32.9674 12.1912 63.7568 0
M  V30 5 C 32.2115 9.7535 64.7851 0
M  V30 6 C 32.225 8.8502 65.8534 0
M  V30 7 C 31.2312 9.6598 63.7946 0
M  V30 8 C 31.2511 7.8358 65.9132 0
M  V30 9 C 30.2714 8.6476 63.8661 0
M  V30 10 C 30.2352 7.7681 64.9673 0
M  V30 11 N 29.359 6.7433 64.9944 0
M  V30 12 N 28.288 6.7084 64.3373 0
M  V30 13 C 27.4645 5.6394 64.3169 0
M  V30 14 C 27.6664 4.4402 64.9933 0
M  V30 15 C 26.3423 5.4365 63.4985 0
M  V30 16 O 28.6021 4.2217 65.7691 0
M  V30 17 N 26.7457 3.5433 64.6146 0
M  V30 18 C 25.8971 4.136 63.7459 0
M  V30 19 C 25.6199 6.2645 62.6218 0
M  V30 20 C 24.7367 3.6436 63.1218 0
M  V30 21 C 24.4644 5.7662 61.9969 0
M  V30 22 C 24.0377 4.4437 62.2066 0
M  V30 23 C 23.6672 6.6909 61.0737 0
M  V30 24 O 22.5733 6.3469 60.6254 0
M  V30 25 O 24.1768 7.9288 60.8684 0
M  V30 26 C 23.4345 8.8607 60.0285 0
M  V30 27 C 24.3131 10.1182 59.9258 0
M  V30 28 C 25.6759 9.7941 59.2703 0
M  V30 29 C 24.5399 10.7255 61.3072 0
M  V30 30 H 32.7019 11.8574 62.8525 0
M  V30 31 H 32.5619 12.8914 64.3448 0
M  V30 32 H 32.9758 8.9307 66.6254 0
M  V30 33 H 31.2154 10.3662 62.9778 0
M  V30 34 H 31.2936 7.1014 66.7037 0
M  V30 35 H 29.5499 8.5379 63.0703 0
M  V30 36 H 29.0304 5.041 65.988 0
M  V30 37 H 26.695 2.5937 64.9234 0
M  V30 38 H 25.9499 7.2748 62.4305 0
M  V30 39 H 24.3834 2.6485 63.3479 0
M  V30 40 H 23.1861 4.0504 61.6717 0
M  V30 41 H 23.2661 8.4279 59.0315 0
M  V30 42 H 22.4664 9.1059 60.49 0
M  V30 43 H 23.7931 10.8569 59.2982 0
M  V30 44 H 26.2815 10.7104 59.2106 0
M  V30 45 H 26.2049 9.0441 59.8766 0
M  V30 46 H 25.5103 9.3973 58.2582 0
M  V30 47 H 25.1694 11.6228 61.2153 0
M  V30 48 H 23.5714 11.0013 61.7502 0
M  V30 49 H 25.042 9.9901 61.9531 0
M  V30 END ATOM
M  V30 BEGIN BOND
M  V30 1 2 1 2
M  V30 2 2 1 3
M  V30 3 1 1 4
M  V30 4 1 1 5
M  V30 5 2 5 6
M  V30 6 1 5 7
M  V30 7 1 6 8
M  V30 8 2 7 9
M  V30 9 2 8 10
M  V30 10 1 10 11
M  V30 11 2 11 12
M  V30 12 1 12 13
M  V30 13 2 13 14
M  V30 14 1 13 15
M  V30 15 1 14 16
M  V30 16 1 14 17
M  V30 17 2 15 18
M  V30 18 1 15 19
M  V30 19 1 18 20
M  V30 20 2 19 21
M  V30 21 2 20 22
M  V30 22 1 21 23
M  V30 23 2 23 24
M  V30 24 1 23 25
M  V30 25 1 25 26
M  V30 26 1 26 27
M  V30 27 1 27 28
M  V30 28 1 27 29
M  V30 29 1 9 10
M  V30 30 1 17 18
M  V30 31 1 21 22
M  V30 32 1 4 30
M  V30 33 1 4 31
M  V30 34 1 6 32
M  V30 35 1 7 33
M  V30 36 1 8 34
M  V30 37 1 9 35
M  V30 38 1 16 36
M  V30 39 1 17 37
M  V30 40 1 19 38
M  V30 41 1 20 39
M  V30 42 1 22 40
M  V30 43 1 26 41
M  V30 44 1 26 42
M  V30 45 1 27 43
M  V30 46 1 28 44
M  V30 47 1 28 45
M  V30 48 1 28 46
M  V30 49 1 29 47
M  V30 50 1 29 48
M  V30 51 1 29 49
M  V30 END BOND
M  V30 END CTAB
M  END
>  <Molecule Name>
HUQOAEIJTCFRKQ-PHEXNGOMNA-N

>  <hs_clash>
9.0

>  <hs_total>
41.385740539879784

>  <Total Molweight>
416.457

>  <cLogP>
3.6629

>  <H-Acceptors>
9

>  <H-Donors>
3

>  <Polar Surface Area>
155.58

>  <Non-H Atoms>
29

>  <sp3-Atoms>
7

$$$$
UFWLHIVKHDCSHZ-OUBFLUSYNA-N
Actelion Java MolfileCreator 2.0

  0  0  0  0  0  0              0 V3000
M  V30 BEGIN CTAB
M  V30 COUNTS 24 25 0 0 0
M  V30 BEGIN ATOM
M  V30 1 O 28.7216 4.018 65.2177 0
M  V30 2 C 27.677 4.2485 64.3572 0
M  V30 3 C 27.4969 5.5401 63.7579 0
M  V30 4 C 26.7696 3.201 64.0594 0
M  V30 5 C 28.4507 6.6442 64.0534 0
M  V30 6 C 26.4006 5.7659 62.8691 0
M  V30 7 C 25.6785 3.4298 63.1705 0
M  V30 8 N 28.2876 7.8604 63.4846 0
M  V30 9 N 29.4866 6.4306 64.8907 0
M  V30 10 C 25.4901 4.7178 62.5754 0
M  V30 11 C 29.1649 8.8569 63.7588 0
M  V30 12 C 30.3596 7.4183 65.1663 0
M  V30 13 N 30.2026 8.6353 64.6001 0
M  V30 14 N 28.995 10.1204 63.1653 0
M  V30 15 N 31.4238 7.1718 66.0333 0
M  V30 16 H 28.8664 4.7889 65.754 0
M  V30 17 H 26.9047 2.2277 64.5069 0
M  V30 18 H 26.2644 6.7383 62.4195 0
M  V30 19 H 24.991 2.6278 62.9455 0
M  V30 20 H 24.66 4.891 61.9065 0
M  V30 21 H 28.1864 10.1069 62.5772 0
M  V30 22 H 29.7228 10.7339 63.4719 0
M  V30 23 H 31.9756 8.0001 66.1283 0
M  V30 24 H 31.381 6.2256 66.3536 0
M  V30 END ATOM
M  V30 BEGIN BOND
M  V30 1 1 1 2
M  V30 2 2 2 3
M  V30 3 1 2 4
M  V30 4 1 3 5
M  V30 5 1 3 6
M  V30 6 2 4 7
M  V30 7 2 5 8
M  V30 8 1 5 9
M  V30 9 2 6 10
M  V30 10 1 8 11
M  V30 11 2 9 12
M  V30 12 2 11 13
M  V30 13 1 11 14
M  V30 14 1 12 15
M  V30 15 1 7 10
M  V30 16 1 12 13
M  V30 17 1 1 16
M  V30 18 1 4 17
M  V30 19 1 6 18
M  V30 20 1 7 19
M  V30 21 1 10 20
M  V30 22 1 14 21
M  V30 23 1 14 22
M  V30 24 1 15 23
M  V30 25 1 15 24
M  V30 END BOND
M  V30 END CTAB
M  END
>  <Molecule Name>
UFWLHIVKHDCSHZ-OUBFLUSYNA-N

>  <hs_clash>
0.0

>  <hs_total>
41.19787174464644

>  <Total Molweight>
203.204

>  <cLogP>
0.6544

>  <H-Acceptors>
6

>  <H-Donors>
3

>  <Polar Surface Area>
110.94

>  <Non-H Atoms>
15

>  <sp3-Atoms>
1

$$$$
FFMXQJGTUTXUCC-OUBFLUSYNA-N
Actelion Java MolfileCreator 2.0

  0  0  0  0  0  0              0 V3000
M  V30 BEGIN CTAB
M  V30 COUNTS 25 26 0 0 0
M  V30 BEGIN ATOM
M  V30 1 O 28.5313 4.239 65.3989 0
M  V30 2 C 27.5137 4.5177 64.4878 0
M  V30 3 C 27.4877 5.7926 63.7453 0
M  V30 4 C 26.4795 3.5482 64.2646 0
M  V30 5 C 28.4587 6.7659 63.8978 0
M  V30 6 C 26.3929 6.0077 62.8188 0
M  V30 7 C 25.4228 3.7941 63.3473 0
M  V30 8 N 28.4056 7.9398 63.1757 0
M  V30 9 N 29.5105 6.5894 64.7636 0
M  V30 10 C 25.3609 5.0161 62.6195 0
M  V30 11 C 29.3743 8.9023 63.3182 0
M  V30 12 C 30.4801 7.5246 64.9219 0
M  V30 13 O 24.4038 5.1831 61.8299 0
M  V30 14 N 30.4182 8.6957 64.1938 0
M  V30 15 N 29.301 9.9879 62.6296 0
M  V30 16 N 31.447 7.3038 65.7435 0
M  V30 17 H 28.9436 5.0502 65.6717 0
M  V30 18 H 26.5051 2.6132 64.8045 0
M  V30 19 H 26.3477 6.9331 62.2638 0
M  V30 20 H 24.6579 3.046 63.2007 0
M  V30 21 H 24.7161 5.6041 61.0378 0
M  V30 22 H 30.0798 10.5755 62.8488 0
M  V30 23 H 28.4839 9.9635 62.0535 0
M  V30 24 H 32.0741 8.0825 65.738 0
M  V30 25 H 31.3206 6.4106 66.1749 0
M  V30 END ATOM
M  V30 BEGIN BOND
M  V30 1 1 1 2
M  V30 2 2 2 3
M  V30 3 1 2 4
M  V30 4 1 3 5
M  V30 5 1 3 6
M  V30 6 2 4 7
M  V30 7 2 5 8
M  V30 8 1 5 9
M  V30 9 2 6 10
M  V30 10 1 8 11
M  V30 11 2 9 12
M  V30 12 1 10 13
M  V30 13 2 11 14
M  V30 14 1 11 15
M  V30 15 1 12 16
M  V30 16 1 7 10
M  V30 17 1 12 14
M  V30 18 1 1 17
M  V30 19 1 4 18
M  V30 20 1 6 19
M  V30 21 1 7 20
M  V30 22 1 13 21
M  V30 23 1 15 22
M  V30 24 1 15 23
M  V30 25 1 16 24
M  V30 26 1 16 25
M  V30 END BOND
M  V30 END CTAB
M  END
>  <Molecule Name>
FFMXQJGTUTXUCC-OUBFLUSYNA-N

>  <hs_clash>
0.0

>  <hs_total>
40.41028781464052

>  <Total Molweight>
219.203

>  <cLogP>
0.3087

>  <H-Acceptors>
7

>  <H-Donors>
4

>  <Polar Surface Area>
131.17

>  <Non-H Atoms>
16

>  <sp3-Atoms>
2

$$$$
DGGPZPWZNMDOFP-QURGRASLNA-N
Actelion Java MolfileCreator 2.0

  0  0  0  0  0  0              0 V3000
M  V30 BEGIN CTAB
M  V30 COUNTS 42 45 0 0 0
M  V30 BEGIN ATOM
M  V30 1 S 34.1569 11.6403 64.8653 0
M  V30 2 O 34.7457 10.3557 64.577 0
M  V30 3 O 35.01 12.692 65.3558 0
M  V30 4 N 33.5845 12.2225 63.4335 0
M  V30 5 C 32.7811 11.4142 65.9968 0
M  V30 6 C 32.7917 13.4371 63.3409 0
M  V30 7 C 31.8996 10.2227 65.7538 0
M  V30 8 C 31.9018 9.0616 66.6819 0
M  V30 9 C 31.1158 10.1749 64.501 0
M  V30 10 C 31.17 7.8285 66.3222 0
M  V30 11 C 30.4619 8.9356 64.1003 0
M  V30 12 C 30.4034 7.7741 65.0544 0
M  V30 13 N 29.6283 6.6766 64.8395 0
M  V30 14 N 28.4399 6.6994 64.4458 0
M  V30 15 C 27.6038 5.5273 64.2781 0
M  V30 16 C 27.7543 4.2354 65.008 0
M  V30 17 C 26.4614 5.3337 63.4238 0
M  V30 18 O 28.6427 4.0655 65.8444 0
M  V30 19 N 26.7907 3.3633 64.5816 0
M  V30 20 C 25.8026 6.2345 62.4748 0
M  V30 21 C 25.977 3.9824 63.6727 0
M  V30 22 S 26.1942 7.812 61.9783 0
M  V30 23 C 24.5491 5.749 61.7821 0
M  V30 24 C 24.7753 3.4844 62.9631 0
M  V30 25 C 24.8097 7.9154 60.981 0
M  V30 26 N 24.0521 6.7856 60.9848 0
M  V30 27 C 24.0487 4.3928 62.0271 0
M  V30 28 H 33.3455 11.5188 62.7648 0
M  V30 29 H 32.1502 12.3138 65.9392 0
M  V30 30 H 33.1952 11.3216 67.0117 0
M  V30 31 H 32.5263 13.6233 62.2897 0
M  V30 32 H 31.8733 13.3219 63.9358 0
M  V30 33 H 33.3747 14.286 63.7275 0
M  V30 34 H 32.4373 9.1187 67.618 0
M  V30 35 H 31.028 11.0571 63.8838 0
M  V30 36 H 31.1937 6.9721 66.9797 0
M  V30 37 H 30.0194 8.8513 63.1186 0
M  V30 38 H 29.1627 4.8571 65.9198 0
M  V30 39 H 26.6955 2.4162 64.8879 0
M  V30 40 H 24.4283 2.4742 63.1215 0
M  V30 41 H 24.5606 8.7934 60.4032 0
M  V30 42 H 23.1532 4.0504 61.5298 0
M  V30 END ATOM
M  V30 BEGIN BOND
M  V30 1 2 1 2
M  V30 2 2 1 3
M  V30 3 1 1 4
M  V30 4 1 1 5
M  V30 5 1 4 6
M  V30 6 1 5 7
M  V30 7 2 7 8
M  V30 8 1 7 9
M  V30 9 1 8 10
M  V30 10 2 9 11
M  V30 11 2 10 12
M  V30 12 1 12 13
M  V30 13 2 13 14
M  V30 14 1 14 15
M  V30 15 2 15 16
M  V30 16 1 15 17
M  V30 17 1 16 18
M  V30 18 1 16 19
M  V30 19 2 17 20
M  V30 20 1 17 21
M  V30 21 1 20 22
M  V30 22 1 20 23
M  V30 23 2 21 24
M  V30 24 1 22 25
M  V30 25 1 23 26
M  V30 26 2 23 27
M  V30 27 1 11 12
M  V30 28 1 19 21
M  V30 29 1 24 27
M  V30 30 2 25 26
M  V30 31 1 4 28
M  V30 32 1 5 29
M  V30 33 1 5 30
M  V30 34 1 6 31
M  V30 35 1 6 32
M  V30 36 1 6 33
M  V30 37 1 8 34
M  V30 38 1 9 35
M  V30 39 1 10 36
M  V30 40 1 11 37
M  V30 41 1 18 38
M  V30 42 1 19 39
M  V30 43 1 24 40
M  V30 44 1 25 41
M  V30 45 1 27 42
M  V30 END BOND
M  V30 END CTAB
M  END
>  <Molecule Name>
DGGPZPWZNMDOFP-QURGRASLNA-N

>  <hs_clash>
42.0

>  <hs_total>
39.265357693080844

>  <Total Molweight>
401.470

>  <cLogP>
3.2205

>  <H-Acceptors>
8

>  <H-Donors>
3

>  <Polar Surface Area>
156.42

>  <Non-H Atoms>
27

>  <sp3-Atoms>
4

$$$$
VPUIDVRYMVIXGO-NLMIROKBNA-N
Actelion Java MolfileCreator 2.0

  0  0  0  0  0  0              0 V3000
M  V30 BEGIN CTAB
M  V30 COUNTS 36 38 0 0 0
M  V30 BEGIN ATOM
M  V30 1 O 27.4397 7.8644 63.2869 0
M  V30 2 C 27.9717 6.8561 64.0707 0
M  V30 3 C 28.1956 9.0646 63.1217 0
M  V30 4 N 29.0705 7.0215 64.8454 0
M  V30 5 C 27.3212 5.5311 64.0818 0
M  V30 6 C 27.6377 9.8503 61.9497 0
M  V30 7 C 29.5601 5.9875 65.5816 0
M  V30 8 N 26.2516 5.0871 63.442 0
M  V30 9 C 27.8661 4.4625 64.859 0
M  V30 10 C 26.3885 10.5785 62.4247 0
M  V30 11 C 28.7289 10.771 61.4134 0
M  V30 12 N 30.6738 6.1352 66.3547 0
M  V30 13 C 28.9759 4.7318 65.5917 0
M  V30 14 C 26.0942 3.813 63.7817 0
M  V30 15 N 27.0628 3.4336 64.6409 0
M  V30 16 C 26.7226 12.0313 62.7075 0
M  V30 17 C 28.2589 12.07 60.7426 0
M  V30 18 C 27.0609 12.7392 61.409 0
M  V30 19 H 28.1269 9.6715 64.0369 0
M  V30 20 H 29.2483 8.8121 62.9275 0
M  V30 21 H 27.3527 9.1445 61.1559 0
M  V30 22 H 25.615 10.5262 61.6444 0
M  V30 23 H 26.0148 10.1036 63.344 0
M  V30 24 H 29.3109 10.2035 60.6727 0
M  V30 25 H 29.3785 11.0469 62.2574 0
M  V30 26 H 31.0165 7.0711 66.2714 0
M  V30 27 H 30.8764 5.2717 66.8166 0
M  V30 28 H 29.4132 3.9502 66.1953 0
M  V30 29 H 25.3035 3.1717 63.4213 0
M  V30 30 H 27.1582 2.5244 65.0462 0
M  V30 31 H 25.8564 12.5216 63.1764 0
M  V30 32 H 27.5855 12.0827 63.3879 0
M  V30 33 H 27.9861 11.8381 59.7026 0
M  V30 34 H 29.097 12.7824 60.7519 0
M  V30 35 H 26.1948 12.6912 60.7324 0
M  V30 36 H 27.3029 13.7912 61.6207 0
M  V30 END ATOM
M  V30 BEGIN BOND
M  V30 1 1 1 2
M  V30 2 1 1 3
M  V30 3 2 2 4
M  V30 4 1 2 5
M  V30 5 1 3 6
M  V30 6 1 4 7
M  V30 7 1 5 8
M  V30 8 2 5 9
M  V30 9 1 6 10
M  V30 10 1 6 11
M  V30 11 1 7 12
M  V30 12 2 7 13
M  V30 13 2 8 14
M  V30 14 1 9 15
M  V30 15 1 10 16
M  V30 16 1 11 17
M  V30 17 1 16 18
M  V30 18 1 9 13
M  V30 19 1 14 15
M  V30 20 1 17 18
M  V30 21 1 3 19
M  V30 22 1 3 20
M  V30 23 1 6 21
M  V30 24 1 10 22
M  V30 25 1 10 23
M  V30 26 1 11 24
M  V30 27 1 11 25
M  V30 28 1 12 26
M  V30 29 1 12 27
M  V30 30 1 13 28
M  V30 31 1 14 29
M  V30 32 1 15 30
M  V30 33 1 16 31
M  V30 34 1 16 32
M  V30 35 1 17 33
M  V30 36 1 17 34
M  V30 37 1 18 35
M  V30 38 1 18 36
M  V30 END BOND
M  V30 END CTAB
M  END
>  <Molecule Name>
VPUIDVRYMVIXGO-NLMIROKBNA-N

>  <hs_clash>
0.0

>  <hs_total>
37.60909446826423

>  <Total Molweight>
246.313

>  <cLogP>
1.9642

>  <H-Acceptors>
5

>  <H-Donors>
2

>  <Polar Surface Area>
76.82

>  <Non-H Atoms>
18

>  <sp3-Atoms>
8

$$$$
UQAWGIKJINAKIZ-CXEUQTIONA-O
Actelion Java MolfileCreator 2.0

  0  0  0  0  0  0              0 V3000
M  V30 BEGIN CTAB
M  V30 COUNTS 45 48 0 0 0
M  V30 BEGIN ATOM
M  V30 1 Cl 26.4668 6.4598 59.9265 0
M  V30 2 C 25.3238 7.1028 60.3252 0
M  V30 3 C 24.3207 6.4381 61.1967 0
M  V30 4 C 25.1134 8.4142 59.856 0
M  V30 5 C 23.1393 7.2321 61.5681 0
M  V30 6 C 24.5066 5.0148 61.7161 0
M  V30 7 C 23.9586 9.1404 60.2277 0
M  V30 8 Cl 22.1671 6.699 62.3761 0
M  V30 9 C 22.9682 8.5571 61.0681 0
M  V30 10 O 23.7956 4.1141 61.2645 0
M  V30 11 C 25.5745 4.7472 62.7242 0
M  V30 12 C 26.2563 5.8305 63.3271 0
M  V30 13 C 25.9431 3.4085 63.1117 0
M  V30 14 N 27.2252 5.6187 64.1978 0
M  V30 15 C 26.993 3.1933 64.0626 0
M  V30 16 C 27.6051 4.3702 64.5879 0
M  V30 17 C 27.9184 6.5755 64.8184 0
M  V30 18 N 28.6375 4.4649 65.4946 0 CHG=1
M  V30 19 C 28.8054 5.822 65.6202 0
M  V30 20 N 29.7343 6.6228 66.433 0
M  V30 21 C 30.6624 7.609 65.9298 0
M  V30 22 C 31.5357 8.1502 66.9176 0
M  V30 23 C 30.7356 8.058 64.5479 0
M  V30 24 C 32.4705 9.1259 66.5548 0
M  V30 25 C 31.6851 9.0485 64.1764 0
M  V30 26 C 32.5439 9.5704 65.1958 0
M  V30 27 S 33.7341 10.7928 64.7993 0
M  V30 28 O 34.5562 10.3138 63.7162 0
M  V30 29 O 34.375 11.144 66.0402 0
M  V30 30 N 32.9931 12.1371 64.24 0
M  V30 31 H 25.8432 8.8707 59.2042 0
M  V30 32 H 23.8257 10.1508 59.8696 0
M  V30 33 H 22.0837 9.12 61.3281 0
M  V30 34 H 25.9805 6.8432 63.0716 0
M  V30 35 H 25.4252 2.5636 62.6827 0
M  V30 36 H 27.3013 2.2028 64.3629 0
M  V30 37 H 27.8255 7.6481 64.731 0
M  V30 38 H 29.1397 3.7288 65.9484 0
M  V30 39 H 30.0728 6.137 67.2389 0
M  V30 40 H 31.476 7.8093 67.9408 0
M  V30 41 H 30.0703 7.6401 63.8066 0
M  V30 42 H 33.1347 9.5426 67.2977 0
M  V30 43 H 31.7563 9.3967 63.1566 0
M  V30 44 H 33.594 12.6044 63.5918 0
M  V30 45 H 32.1419 11.8827 63.7811 0
M  V30 END ATOM
M  V30 BEGIN BOND
M  V30 1 1 1 2
M  V30 2 2 2 3
M  V30 3 1 2 4
M  V30 4 1 3 5
M  V30 5 1 3 6
M  V30 6 2 4 7
M  V30 7 1 5 8
M  V30 8 2 5 9
M  V30 9 2 6 10
M  V30 10 1 6 11
M  V30 11 2 11 12
M  V30 12 1 11 13
M  V30 13 1 12 14
M  V30 14 2 13 15
M  V30 15 1 14 16
M  V30 16 1 14 17
M  V30 17 2 16 18
M  V30 18 2 17 19
M  V30 19 1 19 20
M  V30 20 1 20 21
M  V30 21 2 21 22
M  V30 22 1 21 23
M  V30 23 1 22 24
M  V30 24 2 23 25
M  V30 25 2 24 26
M  V30 26 1 26 27
M  V30 27 2 27 28
M  V30 28 2 27 29
M  V30 29 1 27 30
M  V30 30 1 7 9
M  V30 31 1 15 16
M  V30 32 1 18 19
M  V30 33 1 25 26
M  V30 34 1 4 31
M  V30 35 1 7 32
M  V30 36 1 9 33
M  V30 37 1 12 34
M  V30 38 1 13 35
M  V30 39 1 15 36
M  V30 40 1 17 37
M  V30 41 1 18 38
M  V30 42 1 20 39
M  V30 43 1 22 40
M  V30 44 1 23 41
M  V30 45 1 24 42
M  V30 46 1 25 43
M  V30 47 1 30 44
M  V30 48 1 30 45
M  V30 END BOND
M  V30 END CTAB
M  END
>  <Molecule Name>
UQAWGIKJINAKIZ-CXEUQTIONA-O

>  <hs_clash>
3.0

>  <hs_total>
37.367017512852804

>  <Total Molweight>
462.336

>  <cLogP>
1.6121

>  <H-Acceptors>
7

>  <H-Donors>
3

>  <Polar Surface Area>
116.19

>  <Non-H Atoms>
30

>  <sp3-Atoms>
1

$$$$
ZKHQWZAMYRWXGA-SJUUOGGDNA-J
Actelion Java MolfileCreator 2.0

  0  0  0  0  0  0              0 V3000
M  V30 BEGIN CTAB
M  V30 COUNTS 43 45 0 0 0
M  V30 BEGIN ATOM
M  V30 1 P 22.1383 10.7971 59.3531 0 CFG=2
M  V30 2 O 20.7772 10.8712 58.6924 0
M  V30 3 O 22.0499 9.5156 60.3455 0
M  V30 4 O 22.2876 12.0626 60.3675 0
M  V30 5 O 23.3806 10.6887 58.4879 0 CHG=-1
M  V30 6 P 23.2234 8.4242 60.5965 0 CFG=1
M  V30 7 P 23.4143 13.2313 60.2782 0
M  V30 8 O 24.3077 8.553 59.5559 0
M  V30 9 O 23.8397 8.9304 61.9995 0
M  V30 10 O 22.5795 7.0765 60.8375 0 CHG=-1
M  V30 11 O 24.6067 12.6228 59.5821 0
M  V30 12 O 23.7138 13.6084 61.7092 0 CHG=-1
M  V30 13 O 22.7256 14.3263 59.4963 0 CHG=-1
M  V30 14 C 24.1718 10.3057 62.2306 0
M  V30 15 C 25.6098 10.4948 62.7165 0 CFG=1
M  V30 16 O 25.7334 9.9442 64.0369 0
M  V30 17 C 26.6365 9.7994 61.8216 0 CFG=1
M  V30 18 C 26.8483 9.0493 64.1056 0 CFG=2
M  V30 19 O 27.3039 10.6935 60.9151 0
M  V30 20 C 27.6139 9.1621 62.791 0 CFG=2
M  V30 21 N 26.4127 7.6278 64.2142 0
M  V30 22 O 28.7829 9.9736 62.9532 0
M  V30 23 C 27.098 6.6647 64.8311 0
M  V30 24 C 25.296 7.0802 63.6834 0
M  V30 25 N 28.2662 6.6153 65.5197 0
M  V30 26 C 26.3073 5.4364 64.6583 0
M  V30 27 N 25.216 5.7553 63.9482 0
M  V30 28 C 28.6942 5.4494 66.0444 0
M  V30 29 C 26.8445 4.1998 65.2525 0
M  V30 30 N 28.0191 4.2856 65.9225 0
M  V30 31 N 26.1612 3.0355 65.1251 0
M  V30 32 H 24.0425 10.8616 61.2903 0
M  V30 33 H 23.4877 10.7096 62.9922 0
M  V30 34 H 25.8344 11.5714 62.7378 0
M  V30 35 H 26.1284 9.0042 61.2563 0
M  V30 36 H 27.5114 9.308 64.9446 0
M  V30 37 H 26.7494 10.8522 60.1603 0
M  V30 38 H 27.8827 8.1566 62.4359 0
M  V30 39 H 29.0666 10.294 62.1052 0
M  V30 40 H 24.5592 7.6319 63.1183 0
M  V30 41 H 29.6256 5.4459 66.5912 0
M  V30 42 H 26.6593 2.3038 65.5898 0
M  V30 43 H 25.3263 3.1945 64.5979 0
M  V30 END ATOM
M  V30 BEGIN BOND
M  V30 1 2 1 2
M  V30 2 1 1 3
M  V30 3 1 1 4
M  V30 4 1 1 5
M  V30 5 1 3 6
M  V30 6 1 4 7
M  V30 7 2 6 8
M  V30 8 1 6 9
M  V30 9 1 6 10
M  V30 10 2 7 11
M  V30 11 1 7 12
M  V30 12 1 7 13
M  V30 13 1 9 14
M  V30 14 1 14 15
M  V30 15 1 15 16
M  V30 16 1 15 17
M  V30 17 1 16 18
M  V30 18 1 17 19
M  V30 19 1 17 20
M  V30 20 1 18 21
M  V30 21 1 20 22
M  V30 22 1 21 23
M  V30 23 1 21 24
M  V30 24 2 23 25
M  V30 25 1 23 26
M  V30 26 2 24 27
M  V30 27 1 25 28
M  V30 28 2 26 29
M  V30 29 2 28 30
M  V30 30 1 29 31
M  V30 31 1 18 20
M  V30 32 1 26 27
M  V30 33 1 29 30
M  V30 34 1 14 32
M  V30 35 1 14 33
M  V30 36 1 15 34
M  V30 37 1 17 35
M  V30 38 1 18 36
M  V30 39 1 19 37
M  V30 40 1 20 38
M  V30 41 1 22 39
M  V30 42 1 24 40
M  V30 43 1 28 41
M  V30 44 1 31 42
M  V30 45 1 31 43
M  V30 END BOND
M  V30 BEGIN COLLECTION
M  V30 MDLV30/STERAC1 ATOMS=(6 1 6 15 17 18 20)
M  V30 END COLLECTION
M  V30 END CTAB
M  END
>  <Molecule Name>
ZKHQWZAMYRWXGA-SJUUOGGDNA-J

>  <hs_clash>
46.0

>  <hs_total>
36.53116477876575

>  <Total Molweight>
503.149

>  <cLogP>
-15.06

>  <H-Acceptors>
18

>  <H-Donors>
3

>  <Polar Surface Area>
319.88

>  <Non-H Atoms>
31

>  <sp3-Atoms>
18

$$$$
NOWKBXMQKRTOCM-LLDOCCBONA-N
Actelion Java MolfileCreator 2.0

  0  0  0  0  0  0              0 V3000
M  V30 BEGIN CTAB
M  V30 COUNTS 24 25 0 0 0
M  V30 BEGIN ATOM
M  V30 1 Cl 24.2594 4.9765 61.7041 0
M  V30 2 C 25.5982 4.7011 62.765 0
M  V30 3 C 26.5635 5.729 63.0073 0
M  V30 4 C 25.7385 3.4344 63.3916 0
M  V30 5 C 27.6833 5.4977 63.8868 0
M  V30 6 C 26.841 3.1913 64.2656 0
M  V30 7 C 28.6244 6.4903 64.1035 0
M  V30 8 C 27.8059 4.2034 64.5174 0
M  V30 9 N 28.5162 7.6366 63.3833 0
M  V30 10 N 29.602 6.2416 65.0032 0
M  V30 11 O 28.8423 3.9355 65.349 0
M  V30 12 C 29.491 8.5503 63.635 0
M  V30 13 C 30.5022 7.2289 65.1555 0
M  V30 14 N 30.5057 8.4082 64.502 0
M  V30 15 N 29.4427 9.6498 62.9863 0
M  V30 16 N 31.437 7.0273 65.9863 0
M  V30 17 H 26.4523 6.6895 62.5262 0
M  V30 18 H 25.0123 2.6564 63.2075 0
M  V30 19 H 26.9426 2.2271 64.741 0
M  V30 20 H 29.0072 4.6894 65.9035 0
M  V30 21 H 29.4988 9.4616 62.006 0
M  V30 22 H 30.2093 10.2316 63.2583 0
M  V30 23 H 31.3278 6.1227 66.3984 0
M  V30 24 H 32.0386 7.8257 66.0122 0
M  V30 END ATOM
M  V30 BEGIN BOND
M  V30 1 1 1 2
M  V30 2 2 2 3
M  V30 3 1 2 4
M  V30 4 1 3 5
M  V30 5 2 4 6
M  V30 6 1 5 7
M  V30 7 2 5 8
M  V30 8 2 7 9
M  V30 9 1 7 10
M  V30 10 1 8 11
M  V30 11 1 9 12
M  V30 12 2 10 13
M  V30 13 2 12 14
M  V30 14 1 12 15
M  V30 15 1 13 16
M  V30 16 1 6 8
M  V30 17 1 13 14
M  V30 18 1 3 17
M  V30 19 1 4 18
M  V30 20 1 6 19
M  V30 21 1 11 20
M  V30 22 1 15 21
M  V30 23 1 15 22
M  V30 24 1 16 23
M  V30 25 1 16 24
M  V30 END BOND
M  V30 END CTAB
M  END
>  <Molecule Name>
NOWKBXMQKRTOCM-LLDOCCBONA-N

>  <hs_clash>
0.0

>  <hs_total>
36.52571711417245

>  <Total Molweight>
237.650

>  <cLogP>
1.2604

>  <H-Acceptors>
6

>  <H-Donors>
3

>  <Polar Surface Area>
110.94

>  <Non-H Atoms>
16

>  <sp3-Atoms>
1

$$$$
JTPXVCKCLBROOJ-MDVJYLRGNA-N
Actelion Java MolfileCreator 2.0

  0  0  0  0  0  0              0 V3000
M  V30 BEGIN CTAB
M  V30 COUNTS 12 12 0 0 0
M  V30 BEGIN ATOM
M  V30 1 Cl 25.3107 3.9954 62.9575 0
M  V30 2 C 26.5458 4.5897 63.9718 0
M  V30 3 N 26.8836 5.904 63.9555 0
M  V30 4 C 27.1992 3.6783 64.7927 0
M  V30 5 C 27.8739 6.3722 64.7626 0
M  V30 6 N 28.1737 4.1884 65.5725 0
M  V30 7 N 28.185 7.7211 64.7119 0
M  V30 8 C 28.5903 5.4796 65.6435 0
M  V30 9 H 26.9423 2.6293 64.8055 0
M  V30 10 H 27.594 8.1751 64.0451 0
M  V30 11 H 29.1407 7.8334 64.4405 0
M  V30 12 H 29.3839 5.8084 66.2981 0
M  V30 END ATOM
M  V30 BEGIN BOND
M  V30 1 1 1 2
M  V30 2 2 2 3
M  V30 3 1 2 4
M  V30 4 1 3 5
M  V30 5 2 4 6
M  V30 6 1 5 7
M  V30 7 2 5 8
M  V30 8 1 6 8
M  V30 9 1 4 9
M  V30 10 1 7 10
M  V30 11 1 7 11
M  V30 12 1 8 12
M  V30 END BOND
M  V30 END CTAB
M  END
>  <Molecule Name>
JTPXVCKCLBROOJ-MDVJYLRGNA-N

>  <hs_clash>
0.0

>  <hs_total>
35.2446454757174

>  <Total Molweight>
129.550

>  <cLogP>
0.0353

>  <H-Acceptors>
3

>  <H-Donors>
1

>  <Polar Surface Area>
51.8

>  <Non-H Atoms>
8

>  <sp3-Atoms>
0

$$$$
XHSQDZXAVJRBMX-DDHJBXDONA-N
Actelion Java MolfileCreator 2.0

  0  0  0  0  0  0              0 V3000
M  V30 BEGIN CTAB
M  V30 COUNTS 32 34 0 0 0
M  V30 BEGIN ATOM
M  V30 1 Cl 26.8385 3.2829 65.2526 0
M  V30 2 C 27.034 4.9634 64.6841 0
M  V30 3 C 26.0258 5.4642 63.8938 0
M  V30 4 C 28.153 5.7169 65.02 0
M  V30 5 Cl 24.6313 4.3798 63.5272 0
M  V30 6 C 26.1251 6.7659 63.4128 0
M  V30 7 C 28.2576 7.0158 64.54 0
M  V30 8 C 27.2443 7.5413 63.7383 0
M  V30 9 N 29.2063 7.9693 64.6879 0
M  V30 10 N 27.6003 8.7974 63.4201 0
M  V30 11 C 28.7917 9.058 63.9967 0
M  V30 12 C 26.8293 9.7517 62.5657 0 CFG=1
M  V30 13 O 25.4669 9.3528 62.5582 0
M  V30 14 C 27.2601 9.7622 61.0995 0 CFG=1
M  V30 15 C 24.8877 9.6204 61.2461 0 CFG=2
M  V30 16 O 28.409 10.5581 60.8905 0
M  V30 17 C 25.9936 10.278 60.4215 0 CFG=2
M  V30 18 C 24.338 8.3343 60.6737 0
M  V30 19 O 25.9133 11.6965 60.5727 0
M  V30 20 O 25.1342 7.8548 59.5927 0
M  V30 21 H 28.9285 5.299 65.6445 0
M  V30 22 H 25.3427 7.1763 62.7917 0
M  V30 23 H 29.3312 9.9903 63.9194 0
M  V30 24 H 26.9289 10.7686 62.9738 0
M  V30 25 H 27.443 8.7276 60.7745 0
M  V30 26 H 24.0611 10.3384 61.3534 0
M  V30 27 H 28.9274 10.1876 60.1861 0
M  V30 28 H 25.9477 9.9596 59.3699 0
M  V30 29 H 24.3166 7.572 61.4662 0
M  V30 30 H 23.3152 8.5145 60.3104 0
M  V30 31 H 26.669 12.1022 60.1647 0
M  V30 32 H 24.8407 8.2533 58.7818 0
M  V30 END ATOM
M  V30 BEGIN BOND
M  V30 1 1 1 2
M  V30 2 2 2 3
M  V30 3 1 2 4
M  V30 4 1 3 5
M  V30 5 1 3 6
M  V30 6 2 4 7
M  V30 7 2 6 8
M  V30 8 1 7 9
M  V30 9 1 8 10
M  V30 10 2 9 11
M  V30 11 1 10 12
M  V30 12 1 12 13
M  V30 13 1 12 14
M  V30 14 1 13 15
M  V30 15 1 14 16
M  V30 16 1 14 17
M  V30 17 1 15 18
M  V30 18 1 17 19
M  V30 19 1 18 20
M  V30 20 1 7 8
M  V30 21 1 10 11
M  V30 22 1 15 17
M  V30 23 1 4 21
M  V30 24 1 6 22
M  V30 25 1 11 23
M  V30 26 1 12 24
M  V30 27 1 14 25
M  V30 28 1 15 26
M  V30 29 1 16 27
M  V30 30 1 17 28
M  V30 31 1 18 29
M  V30 32 1 18 30
M  V30 33 1 19 31
M  V30 34 1 20 32
M  V30 END BOND
M  V30 BEGIN COLLECTION
M  V30 MDLV30/STERAC1 ATOMS=(4 12 14 15 17)
M  V30 END COLLECTION
M  V30 END CTAB
M  END
>  <Molecule Name>
XHSQDZXAVJRBMX-DDHJBXDONA-N

>  <hs_clash>
0.0

>  <hs_total>
32.983270820586725

>  <Total Molweight>
319.143

>  <cLogP>
1.0786

>  <H-Acceptors>
6

>  <H-Donors>
3

>  <Polar Surface Area>
87.74

>  <Non-H Atoms>
20

>  <sp3-Atoms>
9

$$$$
NNPBFSPJFKAAAF-KPSZGOFPNA-N
Actelion Java MolfileCreator 2.0

  0  0  0  0  0  0              0 V3000
M  V30 BEGIN CTAB
M  V30 COUNTS 39 43 0 0 0
M  V30 BEGIN ATOM
M  V30 1 S 33.7724 11.355 64.2558 0
M  V30 2 O 34.7418 10.3595 63.7064 0
M  V30 3 O 34.1527 12.7945 64.0531 0
M  V30 4 C 32.086 11.0167 63.7343 0
M  V30 5 C 33.4751 10.9998 66.0187 0
M  V30 6 C 31.7057 9.8511 64.6853 0
M  V30 7 C 32.4527 9.8394 65.8971 0
M  V30 8 C 30.7909 8.8168 64.4284 0
M  V30 9 C 32.1882 8.8355 66.8357 0
M  V30 10 C 30.4928 7.852 65.3905 0
M  V30 11 C 31.2427 7.8375 66.5733 0
M  V30 12 N 29.6197 6.857 65.1582 0
M  V30 13 C 28.5382 6.9615 64.3751 0
M  V30 14 C 27.6908 5.8617 64.193 0
M  V30 15 C 27.7394 4.6754 64.9243 0
M  V30 16 C 26.5953 5.7574 63.3367 0
M  V30 17 O 28.6346 4.3757 65.7235 0
M  V30 18 N 26.8135 3.8278 64.4622 0
M  V30 19 C 25.9825 6.6031 62.4066 0
M  V30 20 C 26.0569 4.4807 63.5653 0
M  V30 21 S 26.3295 8.1917 61.8779 0
M  V30 22 C 24.8323 6.1892 61.6886 0
M  V30 23 C 24.9424 4.0623 62.8311 0
M  V30 24 C 25.0209 8.2992 60.8023 0
M  V30 25 N 24.3658 7.1249 60.8483 0
M  V30 26 C 24.3365 4.9006 61.894 0
M  V30 27 H 32.0445 10.707 62.6797 0
M  V30 28 H 31.434 11.8899 63.8858 0
M  V30 29 H 33.0464 11.8672 66.5423 0
M  V30 30 H 34.395 10.6807 66.5304 0
M  V30 31 H 30.3071 8.7676 63.4641 0
M  V30 32 H 32.7206 8.8312 67.7755 0
M  V30 33 H 31.0895 7.0461 67.2919 0
M  V30 34 H 28.3189 7.8974 63.8824 0
M  V30 35 H 29.0894 5.1628 65.9998 0
M  V30 36 H 26.7035 2.8728 64.7372 0
M  V30 37 H 24.5431 3.072 62.9923 0
M  V30 38 H 24.7617 9.1528 60.1934 0
M  V30 39 H 23.4848 4.5527 61.3284 0
M  V30 END ATOM
M  V30 BEGIN BOND
M  V30 1 2 1 2
M  V30 2 2 1 3
M  V30 3 1 1 4
M  V30 4 1 1 5
M  V30 5 1 4 6
M  V30 6 1 5 7
M  V30 7 1 6 8
M  V30 8 1 7 9
M  V30 9 2 8 10
M  V30 10 2 9 11
M  V30 11 1 10 12
M  V30 12 2 12 13
M  V30 13 1 13 14
M  V30 14 2 14 15
M  V30 15 1 14 16
M  V30 16 1 15 17
M  V30 17 1 15 18
M  V30 18 2 16 19
M  V30 19 1 16 20
M  V30 20 1 19 21
M  V30 21 1 19 22
M  V30 22 2 20 23
M  V30 23 1 21 24
M  V30 24 1 22 25
M  V30 25 2 22 26
M  V30 26 2 6 7
M  V30 27 1 10 11
M  V30 28 1 18 20
M  V30 29 1 23 26
M  V30 30 2 24 25
M  V30 31 1 4 27
M  V30 32 1 4 28
M  V30 33 1 5 29
M  V30 34 1 5 30
M  V30 35 1 8 31
M  V30 36 1 9 32
M  V30 37 1 11 33
M  V30 38 1 13 34
M  V30 39 1 17 35
M  V30 40 1 18 36
M  V30 41 1 23 37
M  V30 42 1 24 38
M  V30 43 1 26 39
M  V30 END BOND
M  V30 END CTAB
M  END
>  <Molecule Name>
NNPBFSPJFKAAAF-KPSZGOFPNA-N

>  <hs_clash>
6.0

>  <hs_total>
32.59870757587166

>  <Total Molweight>
383.451

>  <cLogP>
2.7613

>  <H-Acceptors>
6

>  <H-Donors>
2

>  <Polar Surface Area>
132.03

>  <Non-H Atoms>
26

>  <sp3-Atoms>
4

$$$$
GLZDHSRHLCFCED-VRGMUVNCNA-N
Actelion Java MolfileCreator 2.0

  0  0  0  0  0  0              0 V3000
M  V30 BEGIN CTAB
M  V30 COUNTS 34 36 0 0 0
M  V30 BEGIN ATOM
M  V30 1 Cl 24.4102 5.0769 61.497 0
M  V30 2 C 25.713 4.7218 62.5614 0
M  V30 3 C 26.6836 5.718 62.8478 0
M  V30 4 C 25.8118 3.4335 63.1464 0
M  V30 5 C 27.776 5.4398 63.7316 0
M  V30 6 C 26.8866 3.1317 64.0272 0
M  V30 7 C 28.7189 6.4218 63.9848 0
M  V30 8 C 27.8701 4.1192 64.3276 0
M  V30 9 N 28.5158 7.649 63.4425 0
M  V30 10 N 29.7873 6.082 64.7417 0
M  V30 11 O 28.8889 3.7984 65.1708 0
M  V30 12 C 29.4903 8.5607 63.7175 0
M  V30 13 C 30.6748 7.0695 64.9394 0
M  V30 14 N 30.5909 8.323 64.4607 0
M  V30 15 N 29.3939 9.7769 63.2521 0
M  V30 16 N 31.6856 6.7844 65.6413 0
M  V30 17 C 28.5077 10.2493 62.4238 0
M  V30 18 C 27.1024 9.9861 62.5596 0
M  V30 19 C 28.9548 11.0716 61.3538 0
M  V30 20 C 26.1749 10.5372 61.6322 0
M  V30 21 C 28.0264 11.6229 60.4324 0
M  V30 22 C 26.6379 11.3562 60.5701 0
M  V30 23 H 26.5974 6.6949 62.3952 0
M  V30 24 H 25.0698 2.6811 62.9228 0
M  V30 25 H 26.9578 2.1498 64.4707 0
M  V30 26 H 29.7016 4.1607 64.8379 0
M  V30 27 H 30.2867 10.2141 63.1437 0
M  V30 28 H 32.0003 7.6032 66.1214 0
M  V30 29 H 31.441 6.0807 66.3083 0
M  V30 30 H 26.7477 9.3666 63.3701 0
M  V30 31 H 30.0086 11.2782 61.2411 0
M  V30 32 H 25.1195 10.3326 61.7366 0
M  V30 33 H 28.3768 12.2476 59.6239 0
M  V30 34 H 25.9347 11.7768 59.8664 0
M  V30 END ATOM
M  V30 BEGIN BOND
M  V30 1 1 1 2
M  V30 2 2 2 3
M  V30 3 1 2 4
M  V30 4 1 3 5
M  V30 5 2 4 6
M  V30 6 1 5 7
M  V30 7 2 5 8
M  V30 8 2 7 9
M  V30 9 1 7 10
M  V30 10 1 8 11
M  V30 11 1 9 12
M  V30 12 2 10 13
M  V30 13 2 12 14
M  V30 14 1 12 15
M  V30 15 1 13 16
M  V30 16 1 15 17
M  V30 17 2 17 18
M  V30 18 1 17 19
M  V30 19 1 18 20
M  V30 20 2 19 21
M  V30 21 2 20 22
M  V30 22 1 6 8
M  V30 23 1 13 14
M  V30 24 1 21 22
M  V30 25 1 3 23
M  V30 26 1 4 24
M  V30 27 1 6 25
M  V30 28 1 11 26
M  V30 29 1 15 27
M  V30 30 1 16 28
M  V30 31 1 16 29
M  V30 32 1 18 30
M  V30 33 1 19 31
M  V30 34 1 20 32
M  V30 35 1 21 33
M  V30 36 1 22 34
M  V30 END BOND
M  V30 END CTAB
M  END
>  <Molecule Name>
GLZDHSRHLCFCED-VRGMUVNCNA-N

>  <hs_clash>
0.0

>  <hs_total>
32.07274415056134

>  <Total Molweight>
313.747

>  <cLogP>
3.4681

>  <H-Acceptors>
6

>  <H-Donors>
3

>  <Polar Surface Area>
96.95

>  <Non-H Atoms>
22

>  <sp3-Atoms>
1

$$$$
LZLKFNBMXXLTLX-TUAJAQJTNA-O
Actelion Java MolfileCreator 2.0

  0  0  0  0  0  0              0 V3000
M  V30 BEGIN CTAB
M  V30 COUNTS 39 42 0 0 0
M  V30 BEGIN ATOM
M  V30 1 Br 24.9416 3.714 63.2629 0
M  V30 2 C 26.5558 4.3222 63.9378 0
M  V30 3 N 27.1338 5.5099 63.6598 0
M  V30 4 C 27.4091 3.6577 64.8265 0
M  V30 5 C 28.2959 5.5672 64.3671 0
M  V30 6 C 26.7033 6.5498 62.8363 0
M  V30 7 N 28.4932 4.4388 65.1085 0 CHG=1
M  V30 8 C 29.1316 6.7406 64.2717 0
M  V30 9 C 27.4654 7.6845 62.7205 0
M  V30 10 N 30.3106 6.715 64.963 0
M  V30 11 C 28.6871 7.7785 63.4452 0
M  V30 12 C 27.0513 8.7665 61.7897 0
M  V30 13 C 31.3571 7.6887 64.5912 0
M  V30 14 C 26.4324 8.4517 60.5703 0
M  V30 15 C 27.3271 10.1175 62.0808 0
M  V30 16 C 31.4266 8.7638 65.6329 0
M  V30 17 C 26.055 9.4673 59.6778 0
M  V30 18 C 26.9635 11.1277 61.1834 0
M  V30 19 C 31.2824 10.1288 65.321 0
M  V30 20 C 31.658 8.4614 66.9819 0
M  V30 21 C 26.3187 10.8007 59.9815 0
M  V30 22 N 31.3385 11.0924 66.2627 0
M  V30 23 N 31.7371 9.399 67.9331 0
M  V30 24 C 31.5766 10.6635 67.5219 0
M  V30 25 H 27.2354 2.6711 65.23 0
M  V30 26 H 25.7744 6.4624 62.2924 0
M  V30 27 H 29.2573 4.2315 65.7194 0
M  V30 28 H 30.46 6.056 65.6998 0
M  V30 29 H 29.2855 8.6731 63.355 0
M  V30 30 H 32.3282 7.1769 64.5263 0
M  V30 31 H 31.1124 8.1369 63.617 0
M  V30 32 H 26.2449 7.4191 60.3165 0
M  V30 33 H 27.8235 10.3757 63.0046 0
M  V30 34 H 25.5582 9.2139 58.7532 0
M  V30 35 H 27.1794 12.16 61.4162 0
M  V30 36 H 31.1209 10.4145 64.2921 0
M  V30 37 H 31.7779 7.4265 67.266 0
M  V30 38 H 26.0279 11.5806 59.2936 0
M  V30 39 H 31.6452 11.4271 68.2829 0
M  V30 END ATOM
M  V30 BEGIN BOND
M  V30 1 1 1 2
M  V30 2 1 2 3
M  V30 3 2 2 4
M  V30 4 1 3 5
M  V30 5 1 3 6
M  V30 6 1 4 7
M  V30 7 1 5 8
M  V30 8 2 6 9
M  V30 9 1 8 10
M  V30 10 2 8 11
M  V30 11 1 9 12
M  V30 12 1 10 13
M  V30 13 2 12 14
M  V30 14 1 12 15
M  V30 15 1 13 16
M  V30 16 1 14 17
M  V30 17 2 15 18
M  V30 18 2 16 19
M  V30 19 1 16 20
M  V30 20 2 17 21
M  V30 21 1 19 22
M  V30 22 2 20 23
M  V30 23 2 22 24
M  V30 24 2 5 7
M  V30 25 1 9 11
M  V30 26 1 18 21
M  V30 27 1 23 24
M  V30 28 1 4 25
M  V30 29 1 6 26
M  V30 30 1 7 27
M  V30 31 1 10 28
M  V30 32 1 11 29
M  V30 33 1 13 30
M  V30 34 1 13 31
M  V30 35 1 14 32
M  V30 36 1 15 33
M  V30 37 1 17 34
M  V30 38 1 18 35
M  V30 39 1 19 36
M  V30 40 1 20 37
M  V30 41 1 21 38
M  V30 42 1 24 39
M  V30 END BOND
M  V30 END CTAB
M  END
>  <Molecule Name>
LZLKFNBMXXLTLX-TUAJAQJTNA-O

>  <hs_clash>
0.0

>  <hs_total>
31.715529438735025

>  <Total Molweight>
381.256

>  <cLogP>
0.608

>  <H-Acceptors>
5

>  <H-Donors>
2

>  <Polar Surface Area>
56.36

>  <Non-H Atoms>
24

>  <sp3-Atoms>
1

$$$$
AYNMECSCXKEOGB-XEWJYKKDNA-M
Actelion Java MolfileCreator 2.0

  0  0  0  0  0  0              0 V3000
M  V30 BEGIN CTAB
M  V30 COUNTS 36 38 0 0 0
M  V30 BEGIN ATOM
M  V30 1 S 32.7647 11.0183 64.5194 0
M  V30 2 O 33.5101 11.2752 65.6965 0
M  V30 3 O 33.453 10.7518 63.3273 0
M  V30 4 N 31.7568 12.296 64.2783 0
M  V30 5 C 31.6506 9.8121 64.8231 0
M  V30 6 C 30.5505 9.6217 63.9373 0
M  V30 7 C 31.7662 8.8972 65.8944 0
M  V30 8 C 29.6448 8.5692 64.0638 0
M  V30 9 C 30.904 7.808 66.0379 0
M  V30 10 C 29.8345 7.6256 65.1057 0
M  V30 11 N 29.018 6.4761 65.296 0
M  V30 12 N 27.8749 6.3072 64.5889 0
M  V30 13 C 27.2091 5.2005 64.7293 0
M  V30 14 C 27.5486 3.9496 65.4957 0
M  V30 15 C 25.9918 4.8765 63.9624 0
M  V30 16 O 28.4542 3.7725 66.3154 0
M  V30 17 N 26.6077 2.9692 65.1393 0
M  V30 18 C 25.6888 3.4987 64.2357 0
M  V30 19 C 25.1773 5.6178 63.0927 0
M  V30 20 C 24.6247 2.8635 63.6453 0
M  V30 21 C 24.0612 4.9436 62.5116 0
M  V30 22 C 23.8117 3.5894 62.791 0
M  V30 23 C 23.1083 5.6394 61.5847 0
M  V30 24 O 23.2927 6.9661 61.2768 0
M  V30 25 O 22.1349 5.0938 61.0572 0 CHG=-1
M  V30 26 H 32.18 12.9391 63.6401 0
M  V30 27 H 30.8908 11.9712 63.8981 0
M  V30 28 H 30.4116 10.3259 63.1303 0
M  V30 29 H 32.5467 9.0455 66.6262 0
M  V30 30 H 28.8136 8.4741 63.381 0
M  V30 31 H 31.0439 7.1076 66.8479 0
M  V30 32 H 28.9516 4.5757 66.4169 0
M  V30 33 H 26.5986 2.0304 65.4834 0
M  V30 34 H 25.3858 6.6544 62.8726 0
M  V30 35 H 24.4257 1.8206 63.8431 0
M  V30 36 H 22.9657 3.103 62.3282 0
M  V30 END ATOM
M  V30 BEGIN BOND
M  V30 1 2 1 2
M  V30 2 2 1 3
M  V30 3 1 1 4
M  V30 4 1 1 5
M  V30 5 2 5 6
M  V30 6 1 5 7
M  V30 7 1 6 8
M  V30 8 2 7 9
M  V30 9 2 8 10
M  V30 10 1 10 11
M  V30 11 2 11 12
M  V30 12 1 12 13
M  V30 13 2 13 14
M  V30 14 1 13 15
M  V30 15 1 14 16
M  V30 16 1 14 17
M  V30 17 2 15 18
M  V30 18 1 15 19
M  V30 19 1 18 20
M  V30 20 2 19 21
M  V30 21 2 20 22
M  V30 22 1 21 23
M  V30 23 2 23 24
M  V30 24 1 23 25
M  V30 25 1 9 10
M  V30 26 1 17 18
M  V30 27 1 21 22
M  V30 28 1 4 26
M  V30 29 1 4 27
M  V30 30 1 6 28
M  V30 31 1 7 29
M  V30 32 1 8 30
M  V30 33 1 9 31
M  V30 34 1 16 32
M  V30 35 1 17 33
M  V30 36 1 19 34
M  V30 37 1 20 35
M  V30 38 1 22 36
M  V30 END BOND
M  V30 END CTAB
M  END
>  <Molecule Name>
AYNMECSCXKEOGB-XEWJYKKDNA-M

>  <hs_clash>
2.0

>  <hs_total>
31.37314182575887

>  <Total Molweight>
359.341

>  <cLogP>
0.08

>  <H-Acceptors>
9

>  <H-Donors>
3

>  <Polar Surface Area>
169.41

>  <Non-H Atoms>
25

>  <sp3-Atoms>
3

$$$$
AWSQADBSXFTFKL-NMHRWYTENA-N
Actelion Java MolfileCreator 2.0

  0  0  0  0  0  0              0 V3000
M  V30 BEGIN CTAB
M  V30 COUNTS 36 38 0 0 0
M  V30 BEGIN ATOM
M  V30 1 Br 25.6903 4.1753 63.4144 0
M  V30 2 C 27.2519 4.665 64.387 0
M  V30 3 C 27.7046 5.9789 64.4069 0
M  V30 4 C 27.9723 3.7103 65.0919 0
M  V30 5 N 28.809 6.2648 65.1167 0
M  V30 6 N 27.0483 6.9467 63.7596 0
M  V30 7 N 29.057 4.052 65.7609 0
M  V30 8 C 29.4876 5.3175 65.7813 0
M  V30 9 C 27.7087 7.8609 62.8077 0
M  V30 10 N 30.5901 5.6005 66.4741 0
M  V30 11 C 28.3506 9.0529 63.5306 0
M  V30 12 C 31.2023 6.7893 66.6068 0
M  V30 13 C 29.8475 9.0966 63.2218 0
M  V30 14 C 31.2454 7.7286 65.577 0
M  V30 15 C 31.856 7.0859 67.8123 0
M  V30 16 N 30.4429 10.3038 63.8215 0
M  V30 17 C 31.9028 8.9396 65.7761 0
M  V30 18 C 32.5153 8.298 68.0136 0
M  V30 19 S 31.9468 10.1036 64.5019 0
M  V30 20 C 32.5408 9.225 66.9803 0
M  V30 21 O 32.3814 11.4352 65.0606 0
M  V30 22 O 32.9412 9.6136 63.4994 0
M  V30 23 H 27.6428 2.682 65.0928 0
M  V30 24 H 26.0505 6.8882 63.7284 0
M  V30 25 H 28.4893 7.3089 62.2645 0
M  V30 26 H 26.9604 8.236 62.094 0
M  V30 27 H 30.6789 5.0345 67.2936 0
M  V30 28 H 27.8791 9.9859 63.1883 0
M  V30 29 H 28.204 8.945 64.6158 0
M  V30 30 H 30.3334 8.2029 63.6399 0
M  V30 31 H 29.9953 9.1188 62.1321 0
M  V30 32 H 30.7713 7.5177 64.63 0
M  V30 33 H 31.848 6.3548 68.6072 0
M  V30 34 H 30.2489 11.1809 63.382 0
M  V30 35 H 32.9972 8.512 68.9562 0
M  V30 36 H 33.0546 10.166 67.1107 0
M  V30 END ATOM
M  V30 BEGIN BOND
M  V30 1 1 1 2
M  V30 2 2 2 3
M  V30 3 1 2 4
M  V30 4 1 3 5
M  V30 5 1 3 6
M  V30 6 2 4 7
M  V30 7 2 5 8
M  V30 8 1 6 9
M  V30 9 1 8 10
M  V30 10 1 9 11
M  V30 11 1 10 12
M  V30 12 1 11 13
M  V30 13 2 12 14
M  V30 14 1 12 15
M  V30 15 1 13 16
M  V30 16 1 14 17
M  V30 17 2 15 18
M  V30 18 1 16 19
M  V30 19 2 17 20
M  V30 20 2 19 21
M  V30 21 2 19 22
M  V30 22 1 7 8
M  V30 23 1 17 19
M  V30 24 1 18 20
M  V30 25 1 4 23
M  V30 26 1 6 24
M  V30 27 1 9 25
M  V30 28 1 9 26
M  V30 29 1 10 27
M  V30 30 1 11 28
M  V30 31 1 11 29
M  V30 32 1 13 30
M  V30 33 1 13 31
M  V30 34 1 14 32
M  V30 35 1 15 33
M  V30 36 1 16 34
M  V30 37 1 18 35
M  V30 38 1 20 36
M  V30 END BOND
M  V30 END CTAB
M  END
>  <Molecule Name>
AWSQADBSXFTFKL-NMHRWYTENA-N

>  <hs_clash>
2.0

>  <hs_total>
30.33903873610099

>  <Total Molweight>
384.257

>  <cLogP>
2.1351

>  <H-Acceptors>
7

>  <H-Donors>
3

>  <Polar Surface Area>
104.39

>  <Non-H Atoms>
22

>  <sp3-Atoms>
4

$$$$
NFVBVKHGDDDCEA-QMLCPYSLNA-N
Actelion Java MolfileCreator 2.0

  0  0  0  0  0  0              0 V3000
M  V30 BEGIN CTAB
M  V30 COUNTS 24 25 0 0 0
M  V30 BEGIN ATOM
M  V30 1 S 26.2967 8.6234 61.7273 0
M  V30 2 O 27.0274 9.8532 61.5693 0
M  V30 3 O 24.9018 8.6739 62.0648 0
M  V30 4 N 26.4315 7.8028 60.3562 0
M  V30 5 C 27.1091 7.7033 62.9958 0
M  V30 6 C 26.7707 6.3701 63.2729 0
M  V30 7 C 28.123 8.3352 63.7074 0
M  V30 8 C 27.4661 5.6776 64.2944 0
M  V30 9 C 25.7594 5.6988 62.5739 0
M  V30 10 C 28.8043 7.6594 64.6927 0
M  V30 11 C 27.1275 4.3393 64.5707 0
M  V30 12 C 28.4829 6.3453 64.9877 0
M  V30 13 C 25.435 4.3885 62.8717 0
M  V30 14 O 27.8111 3.6836 65.5408 0
M  V30 15 C 26.1146 3.7099 63.8652 0
M  V30 16 H 25.6145 7.2424 60.2208 0
M  V30 17 H 26.9865 8.3245 59.7083 0
M  V30 18 H 28.3764 9.3613 63.4855 0
M  V30 19 H 25.2244 6.2132 61.7893 0
M  V30 20 H 29.5929 8.1559 65.2386 0
M  V30 21 H 29.0252 5.827 65.7647 0
M  V30 22 H 24.6463 3.8929 62.3254 0
M  V30 23 H 27.5957 2.7587 65.5104 0
M  V30 24 H 25.8555 2.6863 64.0923 0
M  V30 END ATOM
M  V30 BEGIN BOND
M  V30 1 2 1 2
M  V30 2 2 1 3
M  V30 3 1 1 4
M  V30 4 1 1 5
M  V30 5 1 5 6
M  V30 6 2 5 7
M  V30 7 1 6 8
M  V30 8 2 6 9
M  V30 9 1 7 10
M  V30 10 2 8 11
M  V30 11 1 8 12
M  V30 12 1 9 13
M  V30 13 1 11 14
M  V30 14 1 11 15
M  V30 15 2 10 12
M  V30 16 2 13 15
M  V30 17 1 4 16
M  V30 18 1 4 17
M  V30 19 1 7 18
M  V30 20 1 9 19
M  V30 21 1 10 20
M  V30 22 1 12 21
M  V30 23 1 13 22
M  V30 24 1 14 23
M  V30 25 1 15 24
M  V30 END BOND
M  V30 END CTAB
M  END
>  <Molecule Name>
NFVBVKHGDDDCEA-QMLCPYSLNA-N

>  <hs_clash>
0.0

>  <hs_total>
28.447862833661237

>  <Total Molweight>
223.251

>  <cLogP>
1.2723

>  <H-Acceptors>
4

>  <H-Donors>
2

>  <Polar Surface Area>
88.77

>  <Non-H Atoms>
15

>  <sp3-Atoms>
2

$$$$
AYZRKFOEZQBUEA-BIKHUNSGNA-N
Actelion Java MolfileCreator 2.0

  0  0  0  0  0  0              0 V3000
M  V30 BEGIN CTAB
M  V30 COUNTS 26 27 0 0 0
M  V30 BEGIN ATOM
M  V30 1 O 20.6132 5.6862 60.4238 0
M  V30 2 C 21.6976 5.3438 61.1569 0
M  V30 3 C 21.9929 3.9986 61.3856 0
M  V30 4 C 22.4864 6.3486 61.7027 0
M  V30 5 C 23.0852 3.6645 62.1677 0
M  V30 6 C 23.5763 6.0231 62.4829 0
M  V30 7 C 23.8849 4.6775 62.7258 0
M  V30 8 N 24.9706 4.3466 63.4988 0
M  V30 9 N 25.6487 5.2476 64.1284 0
M  V30 10 C 26.7533 4.9166 64.8505 0
M  V30 11 C 27.137 3.6177 65.2766 0
M  V30 12 C 27.7305 5.7984 65.3021 0
M  V30 13 N 28.264 3.7304 65.9345 0
M  V30 14 N 26.4372 2.4318 65.0398 0
M  V30 15 N 28.6576 5.0752 65.9678 0
M  V30 16 N 27.7568 7.1619 65.0874 0
M  V30 17 H 20.2099 4.9026 60.0691 0
M  V30 18 H 21.3737 3.225 60.9563 0
M  V30 19 H 22.246 7.385 61.5163 0
M  V30 20 H 23.323 2.6268 62.3487 0
M  V30 21 H 24.1911 6.804 62.906 0
M  V30 22 H 26.9297 1.6657 65.4523 0
M  V30 23 H 25.6103 2.6317 64.5139 0
M  V30 24 H 29.4803 5.4362 66.407 0
M  V30 25 H 26.957 7.4308 64.5505 0
M  V30 26 H 28.5891 7.4055 64.5899 0
M  V30 END ATOM
M  V30 BEGIN BOND
M  V30 1 1 1 2
M  V30 2 2 2 3
M  V30 3 1 2 4
M  V30 4 1 3 5
M  V30 5 2 4 6
M  V30 6 2 5 7
M  V30 7 1 7 8
M  V30 8 2 8 9
M  V30 9 1 9 10
M  V30 10 1 10 11
M  V30 11 2 10 12
M  V30 12 2 11 13
M  V30 13 1 11 14
M  V30 14 1 12 15
M  V30 15 1 12 16
M  V30 16 1 6 7
M  V30 17 1 13 15
M  V30 18 1 1 17
M  V30 19 1 3 18
M  V30 20 1 4 19
M  V30 21 1 5 20
M  V30 22 1 6 21
M  V30 23 1 14 22
M  V30 24 1 14 23
M  V30 25 1 15 24
M  V30 26 1 16 25
M  V30 27 1 16 26
M  V30 END BOND
M  V30 END CTAB
M  END
>  <Molecule Name>
AYZRKFOEZQBUEA-BIKHUNSGNA-N

>  <hs_clash>
0.0

>  <hs_total>
27.00924645477761

>  <Total Molweight>
218.219

>  <cLogP>
0.7579

>  <H-Acceptors>
7

>  <H-Donors>
4

>  <Polar Surface Area>
125.67

>  <Non-H Atoms>
16

>  <sp3-Atoms>
1

$$$$
OQGZVJIFCDXDFS-LLDOCCBONA-N
Actelion Java MolfileCreator 2.0

  0  0  0  0  0  0              0 V3000
M  V30 BEGIN CTAB
M  V30 COUNTS 28 29 0 0 0
M  V30 BEGIN ATOM
M  V30 1 O 24.3242 4.2884 62.5987 0
M  V30 2 C 25.3197 4.3087 63.4478 0
M  V30 3 C 23.3971 3.1925 62.5145 0
M  V30 4 C 26.2977 5.3826 63.5672 0
M  V30 5 C 25.4797 3.1798 64.3342 0
M  V30 6 C 27.3695 5.3274 64.5062 0
M  V30 7 C 26.5347 3.1063 65.2772 0
M  V30 8 C 28.3473 6.4472 64.5527 0
M  V30 9 C 27.4988 4.1748 65.3806 0
M  V30 10 N 28.2099 7.5202 63.6962 0
M  V30 11 N 29.4037 6.4154 65.4301 0
M  V30 12 O 28.5323 4.1086 66.2801 0
M  V30 13 C 29.1275 8.5403 63.7226 0
M  V30 14 C 30.3178 7.4132 65.4654 0
M  V30 15 N 30.1855 8.487 64.6071 0
M  V30 16 N 28.9865 9.5757 62.8794 0
M  V30 17 N 31.3342 7.3355 66.334 0
M  V30 18 H 22.652 3.4009 61.7327 0
M  V30 19 H 23.942 2.2702 62.2651 0
M  V30 20 H 22.8883 3.0675 63.4817 0
M  V30 21 H 26.2079 6.2464 62.9251 0
M  V30 22 H 24.7724 2.3656 64.2764 0
M  V30 23 H 26.6179 2.2448 65.9229 0
M  V30 24 H 28.6885 4.9705 66.6478 0
M  V30 25 H 29.7341 10.2247 63.0196 0
M  V30 26 H 28.1687 9.4413 62.3199 0
M  V30 27 H 31.9184 8.1412 66.2372 0
M  V30 28 H 31.2565 6.4911 66.864 0
M  V30 END ATOM
M  V30 BEGIN BOND
M  V30 1 1 1 2
M  V30 2 1 1 3
M  V30 3 2 2 4
M  V30 4 1 2 5
M  V30 5 1 4 6
M  V30 6 2 5 7
M  V30 7 1 6 8
M  V30 8 2 6 9
M  V30 9 2 8 10
M  V30 10 1 8 11
M  V30 11 1 9 12
M  V30 12 1 10 13
M  V30 13 2 11 14
M  V30 14 2 13 15
M  V30 15 1 13 16
M  V30 16 1 14 17
M  V30 17 1 7 9
M  V30 18 1 14 15
M  V30 19 1 3 18
M  V30 20 1 3 19
M  V30 21 1 3 20
M  V30 22 1 4 21
M  V30 23 1 5 22
M  V30 24 1 7 23
M  V30 25 1 12 24
M  V30 26 1 16 25
M  V30 27 1 16 26
M  V30 28 1 17 27
M  V30 29 1 17 28
M  V30 END BOND
M  V30 END CTAB
M  END
>  <Molecule Name>
OQGZVJIFCDXDFS-LLDOCCBONA-N

>  <hs_clash>
0.0

>  <hs_total>
25.37679193650272

>  <Total Molweight>
233.230

>  <cLogP>
0.5844

>  <H-Acceptors>
7

>  <H-Donors>
3

>  <Polar Surface Area>
120.17

>  <Non-H Atoms>
17

>  <sp3-Atoms>
3

$$$$
LLQWUZKGZZNBKG-BUYKPOSTNA-O
Actelion Java MolfileCreator 2.0

  0  0  0  0  0  0              0 V3000
M  V30 BEGIN CTAB
M  V30 COUNTS 35 37 0 0 0
M  V30 BEGIN ATOM
M  V30 1 O 22.858 4.9501 61.0017 0
M  V30 2 C 23.8632 5.3181 61.6048 0
M  V30 3 O 24.4895 4.4119 62.4241 0
M  V30 4 C 24.3776 6.6192 61.4304 0
M  V30 5 C 25.5956 4.7497 63.1277 0
M  V30 6 C 25.4993 7.0443 62.1932 0
M  V30 7 C 26.1106 6.0494 63.0296 0
M  V30 8 C 26.1688 3.7564 63.9403 0
M  V30 9 C 26.1481 8.3295 62.0759 0
M  V30 10 C 27.2425 6.3269 63.815 0
M  V30 11 C 27.2901 4.0695 64.6562 0
M  V30 12 N 25.6293 9.2194 61.0239 0 CHG=1
M  V30 13 C 27.8445 5.3502 64.6141 0
M  V30 14 O 27.8683 3.1276 65.3918 0
M  V30 15 C 25.9815 10.5849 61.4362 0
M  V30 16 C 26.2291 8.8991 59.7507 0
M  V30 17 C 25.3301 11.4367 60.4303 0
M  V30 18 C 25.8339 9.9321 58.6508 0
M  V30 19 O 26.0463 11.2136 59.168 0
M  V30 20 H 23.9202 7.2915 60.7194 0
M  V30 21 H 25.7335 2.7696 63.9977 0
M  V30 22 H 26.042 8.8496 63.0396 0
M  V30 23 H 27.214 8.1511 61.8711 0
M  V30 24 H 27.6593 7.3232 63.8011 0
M  V30 25 H 24.6347 9.1301 60.9674 0
M  V30 26 H 28.7273 5.5833 65.191 0
M  V30 27 H 27.3826 2.3157 65.3064 0
M  V30 28 H 25.5943 10.8021 62.4429 0
M  V30 29 H 27.072 10.7284 61.424 0
M  V30 30 H 27.3235 8.8983 59.8626 0
M  V30 31 H 25.8916 7.8997 59.4393 0
M  V30 32 H 24.272 11.1558 60.3218 0
M  V30 33 H 25.4 12.4944 60.725 0
M  V30 34 H 26.4566 9.7824 57.7565 0
M  V30 35 H 24.7738 9.8078 58.3847 0
M  V30 END ATOM
M  V30 BEGIN BOND
M  V30 1 2 1 2
M  V30 2 1 2 3
M  V30 3 1 2 4
M  V30 4 1 3 5
M  V30 5 2 4 6
M  V30 6 2 5 7
M  V30 7 1 5 8
M  V30 8 1 6 9
M  V30 9 1 7 10
M  V30 10 2 8 11
M  V30 11 1 9 12
M  V30 12 2 10 13
M  V30 13 1 11 14
M  V30 14 1 12 15
M  V30 15 1 12 16
M  V30 16 1 15 17
M  V30 17 1 16 18
M  V30 18 1 17 19
M  V30 19 1 6 7
M  V30 20 1 11 13
M  V30 21 1 18 19
M  V30 22 1 4 20
M  V30 23 1 8 21
M  V30 24 1 9 22
M  V30 25 1 9 23
M  V30 26 1 10 24
M  V30 27 1 12 25
M  V30 28 1 13 26
M  V30 29 1 14 27
M  V30 30 1 15 28
M  V30 31 1 15 29
M  V30 32 1 16 30
M  V30 33 1 16 31
M  V30 34 1 17 32
M  V30 35 1 17 33
M  V30 36 1 18 34
M  V30 37 1 18 35
M  V30 END BOND
M  V30 END CTAB
M  END
>  <Molecule Name>
LLQWUZKGZZNBKG-BUYKPOSTNA-O

>  <hs_clash>
0.0

>  <hs_total>
21.96892663647904

>  <Total Molweight>
262.284

>  <cLogP>
-1.6173

>  <H-Acceptors>
5

>  <H-Donors>
2

>  <Polar Surface Area>
60.2

>  <Non-H Atoms>
19

>  <sp3-Atoms>
9

$$$$
CGPHAOKPHOVKMZ-QFIPXVFZNA-N
Actelion Java MolfileCreator 2.0

  0  0  0  0  0  0              0 V3000
M  V30 BEGIN CTAB
M  V30 COUNTS 54 58 0 0 0
M  V30 BEGIN ATOM
M  V30 1 S 24.4811 7.3403 60.6013 0
M  V30 2 O 22.8956 6.6583 60.6816 0
M  V30 3 O 25.542 6.8385 59.306 0
M  V30 4 N 24.503 9.1085 60.4215 0
M  V30 5 C 25.0777 6.4305 62.038 0
M  V30 6 C 24.7066 9.7705 59.1132 0
M  V30 7 C 24.6116 9.9721 61.606 0
M  V30 8 C 25.9857 6.9548 63.039 0
M  V30 9 C 24.6199 5.0488 62.0657 0
M  V30 10 C 25.9914 10.5918 59.0857 0
M  V30 11 C 25.9129 10.752 61.6025 0
M  V30 12 C 26.6236 5.9228 63.8414 0
M  V30 13 C 25.2098 4.06 62.9562 0
M  V30 14 C 26.14 11.5141 60.2988 0
M  V30 15 C 27.7747 6.0423 64.7096 0
M  V30 16 C 26.2703 4.5148 63.8337 0
M  V30 17 O 27.3117 12.338 60.294 0
M  V30 18 C 27.9264 4.601 65.1408 0
M  V30 19 C 28.7459 7.1058 64.8615 0
M  V30 20 N 27.0695 3.7018 64.6704 0
M  V30 21 O 28.8503 4.2649 65.8751 0
M  V30 22 N 29.8077 6.9145 65.7754 0
M  V30 23 C 28.7805 8.3346 64.0807 0 CFG=1
M  V30 24 C 30.6017 8.0664 65.5789 0
M  V30 25 O 27.8079 9.1996 64.3824 0
M  V30 26 C 30.0737 8.8474 64.4843 0
M  V30 27 C 28.7917 8.1337 62.59 0
M  V30 28 C 31.762 8.4989 66.3343 0
M  V30 29 C 30.8136 9.958 63.9226 0
M  V30 30 C 32.4832 9.6483 65.8094 0
M  V30 31 C 32.0771 10.2782 64.5641 0
M  V30 32 H 24.7594 9.0004 58.3297 0
M  V30 33 H 23.854 10.4371 58.9152 0
M  V30 34 H 23.7695 10.6802 61.6119 0
M  V30 35 H 24.571 9.347 62.5104 0
M  V30 36 H 26.1707 8.0101 63.1759 0
M  V30 37 H 23.8189 4.7489 61.4063 0
M  V30 38 H 26.8475 9.9018 59.0636 0
M  V30 39 H 25.9934 11.2084 58.1747 0
M  V30 40 H 26.7452 10.0479 61.7484 0
M  V30 41 H 25.8932 11.4735 62.4329 0
M  V30 42 H 24.8725 3.0341 62.9629 0
M  V30 43 H 25.2886 12.2072 60.2282 0
M  V30 44 H 27.0672 13.2382 60.4752 0
M  V30 45 H 27.0068 2.7213 64.8563 0
M  V30 46 H 29.3349 5.0352 66.1478 0
M  V30 47 H 27.9191 9.5028 65.276 0
M  V30 48 H 27.8158 7.744 62.2647 0
M  V30 49 H 28.987 9.095 62.0922 0
M  V30 50 H 29.5808 7.4155 62.3233 0
M  V30 51 H 32.0736 7.9954 67.2375 0
M  V30 52 H 30.4467 10.5171 63.0744 0
M  V30 53 H 33.3316 10.0384 66.3524 0
M  V30 54 H 32.7318 11.0034 64.1039 0
M  V30 END ATOM
M  V30 BEGIN BOND
M  V30 1 2 1 2
M  V30 2 2 1 3
M  V30 3 1 1 4
M  V30 4 1 1 5
M  V30 5 1 4 6
M  V30 6 1 4 7
M  V30 7 2 5 8
M  V30 8 1 5 9
M  V30 9 1 6 10
M  V30 10 1 7 11
M  V30 11 1 8 12
M  V30 12 2 9 13
M  V30 13 1 10 14
M  V30 14 1 12 15
M  V30 15 2 12 16
M  V30 16 1 14 17
M  V30 17 2 15 18
M  V30 18 1 15 19
M  V30 19 1 16 20
M  V30 20 1 18 21
M  V30 21 2 19 22
M  V30 22 1 19 23
M  V30 23 1 22 24
M  V30 24 1 23 25
M  V30 25 1 23 26
M  V30 26 1 23 27
M  V30 27 1 24 28
M  V30 28 1 26 29
M  V30 29 2 28 30
M  V30 30 2 29 31
M  V30 31 1 11 14
M  V30 32 1 13 16
M  V30 33 1 18 20
M  V30 34 2 24 26
M  V30 35 1 30 31
M  V30 36 1 6 32
M  V30 37 1 6 33
M  V30 38 1 7 34
M  V30 39 1 7 35
M  V30 40 1 8 36
M  V30 41 1 9 37
M  V30 42 1 10 38
M  V30 43 1 10 39
M  V30 44 1 11 40
M  V30 45 1 11 41
M  V30 46 1 13 42
M  V30 47 1 14 43
M  V30 48 1 17 44
M  V30 49 1 20 45
M  V30 50 1 21 46
M  V30 51 1 25 47
M  V30 52 1 27 48
M  V30 53 1 27 49
M  V30 54 1 27 50
M  V30 55 1 28 51
M  V30 56 1 29 52
M  V30 57 1 30 53
M  V30 58 1 31 54
M  V30 END BOND
M  V30 BEGIN COLLECTION
M  V30 MDLV30/STERAC1 ATOMS=(1 23)
M  V30 END COLLECTION
M  V30 END CTAB
M  END
>  <Molecule Name>
CGPHAOKPHOVKMZ-QFIPXVFZNA-N

>  <hs_clash>
0.0

>  <hs_total>
18.99520686810844

>  <Total Molweight>
441.507

>  <cLogP>
2.1148

>  <H-Acceptors>
8

>  <H-Donors>
4

>  <Polar Surface Area>
134.6

>  <Non-H Atoms>
31

>  <sp3-Atoms>
11

$$$$
DMTNMDIKSMRUDA-VRGMUVNCNA-N
Actelion Java MolfileCreator 2.0

  0  0  0  0  0  0              0 V3000
M  V30 BEGIN CTAB
M  V30 COUNTS 38 40 0 0 0
M  V30 BEGIN ATOM
M  V30 1 F 24.1835 3.3924 63.9615 0
M  V30 2 C 24.0088 4.564 63.6992 0
M  V30 3 F 23.7317 4.6538 62.5812 0
M  V30 4 F 23.0594 4.9964 64.3651 0
M  V30 5 C 25.2884 5.3471 63.9357 0
M  V30 6 N 26.2965 4.9989 64.7338 0
M  V30 7 N 25.4907 6.505 63.3394 0
M  V30 8 C 27.1939 5.9916 64.6088 0
M  V30 9 C 26.6778 6.9044 63.7419 0
M  V30 10 N 28.3986 6.2099 65.1657 0
M  V30 11 C 27.3503 7.9937 63.4253 0
M  V30 12 C 29.0644 7.3391 64.8168 0
M  V30 13 O 26.73 8.8269 62.5555 0
M  V30 14 N 28.5637 8.2363 63.9478 0
M  V30 15 N 30.2567 7.6169 65.3163 0
M  V30 16 C 27.6027 9.6968 61.8302 0
M  V30 17 C 27.0197 11.111 61.9009 0
M  V30 18 C 25.901 11.2525 62.9122 0
M  V30 19 C 26.4152 11.4796 60.5887 0
M  V30 20 C 25.7655 12.7954 63.1195 0
M  V30 21 C 26.1163 13.0364 60.6003 0
M  V30 22 C 25.2888 13.4561 61.8067 0
M  V30 23 H 24.8721 6.9798 62.713 0
M  V30 24 H 30.5338 6.8893 65.9434 0
M  V30 25 H 30.5817 8.4854 64.9413 0
M  V30 26 H 28.6053 9.6826 62.282 0
M  V30 27 H 27.6681 9.3713 60.7816 0
M  V30 28 H 27.8242 11.8193 62.1483 0
M  V30 29 H 24.9648 10.8278 62.5208 0
M  V30 30 H 26.1633 10.7535 63.8568 0
M  V30 31 H 27.1165 11.2411 59.7757 0
M  V30 32 H 25.4786 10.922 60.4406 0
M  V30 33 H 25.0334 12.9948 63.916 0
M  V30 34 H 26.7417 13.2133 63.406 0
M  V30 35 H 25.5652 13.2979 59.6851 0
M  V30 36 H 27.0723 13.5802 60.6206 0
M  V30 37 H 24.2408 13.1717 61.6303 0
M  V30 38 H 25.3583 14.5484 61.9176 0
M  V30 END ATOM
M  V30 BEGIN BOND
M  V30 1 1 1 2
M  V30 2 1 2 3
M  V30 3 1 2 4
M  V30 4 1 2 5
M  V30 5 2 5 6
M  V30 6 1 5 7
M  V30 7 1 6 8
M  V30 8 1 7 9
M  V30 9 1 8 10
M  V30 10 1 9 11
M  V30 11 2 10 12
M  V30 12 1 11 13
M  V30 13 2 11 14
M  V30 14 1 12 15
M  V30 15 1 13 16
M  V30 16 1 16 17
M  V30 17 1 17 18
M  V30 18 1 17 19
M  V30 19 1 18 20
M  V30 20 1 19 21
M  V30 21 1 20 22
M  V30 22 2 8 9
M  V30 23 1 12 14
M  V30 24 1 21 22
M  V30 25 1 7 23
M  V30 26 1 15 24
M  V30 27 1 15 25
M  V30 28 1 16 26
M  V30 29 1 16 27
M  V30 30 1 17 28
M  V30 31 1 18 29
M  V30 32 1 18 30
M  V30 33 1 19 31
M  V30 34 1 19 32
M  V30 35 1 20 33
M  V30 36 1 20 34
M  V30 37 1 21 35
M  V30 38 1 21 36
M  V30 39 1 22 37
M  V30 40 1 22 38
M  V30 END BOND
M  V30 END CTAB
M  END
>  <Molecule Name>
DMTNMDIKSMRUDA-VRGMUVNCNA-N

>  <hs_clash>
2.0

>  <hs_total>
14.385886389369048

>  <Total Molweight>
315.298

>  <cLogP>
2.4407

>  <H-Acceptors>
6

>  <H-Donors>
2

>  <Polar Surface Area>
89.71

>  <Non-H Atoms>
22

>  <sp3-Atoms>
9

$$$$
BYYOTMYLPPUWCF-AAOJIYRFNA-M
Actelion Java MolfileCreator 2.0

  0  0  0  0  0  0              0 V3000
M  V30 BEGIN CTAB
M  V30 COUNTS 33 36 0 0 0
M  V30 BEGIN ATOM
M  V30 1 S 23.1498 5.9534 61.4845 0
M  V30 2 O 23.9855 6.2132 60.3337 0
M  V30 3 O 22.0763 4.9985 61.1079 0
M  V30 4 O 22.509 7.0636 62.1602 0 CHG=-1
M  V30 5 C 24.1029 5.0936 62.7092 0
M  V30 6 C 25.2459 5.7686 63.248 0
M  V30 7 C 23.7597 3.7857 63.1439 0
M  V30 8 C 26.0344 5.1012 64.2296 0
M  V30 9 C 24.5463 3.1289 64.1288 0
M  V30 10 C 27.2897 5.4085 65.0446 0
M  V30 11 C 25.6754 3.8068 64.6519 0
M  V30 12 C 27.4682 4.1783 65.8501 0
M  V30 13 C 28.1283 6.4847 65.0771 0
M  V30 14 N 26.5193 3.3357 65.573 0
M  V30 15 O 28.3829 4.0066 66.6558 0
M  V30 16 N 29.1799 6.5035 65.8717 0
M  V30 17 C 28.1368 7.7836 64.3726 0
M  V30 18 C 29.9114 7.6213 65.7882 0
M  V30 19 O 27.3612 8.2143 63.5448 0
M  V30 20 C 29.3482 8.5186 64.8646 0
M  V30 21 C 31.0988 7.9428 66.4987 0
M  V30 22 C 29.9331 9.7852 64.5859 0
M  V30 23 C 31.7053 9.2115 66.2364 0
M  V30 24 C 31.1276 10.1239 65.2895 0
M  V30 25 H 25.5046 6.7636 62.9172 0
M  V30 26 H 22.8975 3.2887 62.7248 0
M  V30 27 H 24.2896 2.1369 64.4702 0
M  V30 28 H 26.4309 2.4364 66.0011 0
M  V30 29 H 28.7205 4.8491 66.9364 0
M  V30 30 H 31.5282 7.2542 67.2115 0
M  V30 31 H 29.491 10.4633 63.8708 0
M  V30 32 H 32.6099 9.4874 66.7575 0
M  V30 33 H 31.6022 11.077 65.1081 0
M  V30 END ATOM
M  V30 BEGIN BOND
M  V30 1 2 1 2
M  V30 2 2 1 3
M  V30 3 1 1 4
M  V30 4 1 1 5
M  V30 5 2 5 6
M  V30 6 1 5 7
M  V30 7 1 6 8
M  V30 8 2 7 9
M  V30 9 1 8 10
M  V30 10 2 8 11
M  V30 11 2 10 12
M  V30 12 1 10 13
M  V30 13 1 11 14
M  V30 14 1 12 15
M  V30 15 2 13 16
M  V30 16 1 13 17
M  V30 17 1 16 18
M  V30 18 2 17 19
M  V30 19 1 17 20
M  V30 20 1 18 21
M  V30 21 1 20 22
M  V30 22 2 21 23
M  V30 23 2 22 24
M  V30 24 1 9 11
M  V30 25 1 12 14
M  V30 26 2 18 20
M  V30 27 1 23 24
M  V30 28 1 6 25
M  V30 29 1 7 26
M  V30 30 1 9 27
M  V30 31 1 14 28
M  V30 32 1 15 29
M  V30 33 1 21 30
M  V30 34 1 22 31
M  V30 35 1 23 32
M  V30 36 1 24 33
M  V30 END BOND
M  V30 END CTAB
M  END
>  <Molecule Name>
BYYOTMYLPPUWCF-AAOJIYRFNA-M

>  <hs_clash>
0.0

>  <hs_total>
13.17101640379152

>  <Total Molweight>
341.322

>  <cLogP>
-0.9342

>  <H-Acceptors>
7

>  <H-Donors>
2

>  <Polar Surface Area>
131.03

>  <Non-H Atoms>
24

>  <sp3-Atoms>
3

$$$$
BMWRKSIJFRXVQQ-VMYUEGETNA-M
Actelion Java MolfileCreator 2.0

  0  0  0  0  0  0              0 V3000
M  V30 BEGIN CTAB
M  V30 COUNTS 27 28 0 0 0
M  V30 BEGIN ATOM
M  V30 1 O 23.1134 9.9953 57.4759 0
M  V30 2 C 23.466 9.5406 58.5916 0
M  V30 3 O 22.6627 9.3093 59.5352 0 CHG=-1
M  V30 4 C 24.9397 9.1727 58.7567 0
M  V30 5 C 25.3869 8.8603 60.1576 0
M  V30 6 C 25.5102 7.548 60.5827 0
M  V30 7 C 25.7674 9.8731 61.0278 0
M  V30 8 C 25.9544 7.2496 61.8639 0
M  V30 9 C 26.1858 9.5846 62.3091 0
M  V30 10 N 25.9985 5.9018 62.249 0
M  V30 11 C 26.2824 8.2831 62.7344 0
M  V30 12 C 26.7744 5.2722 63.1864 0
M  V30 13 N 27.6579 5.9633 63.9199 0
M  V30 14 C 26.6483 3.8933 63.3255 0
M  V30 15 C 28.4251 5.2681 64.7702 0
M  V30 16 C 27.4566 3.2964 64.2327 0
M  V30 17 N 28.3663 3.954 64.9789 0
M  V30 18 H 25.5406 10.0187 58.3923 0
M  V30 19 H 25.1373 8.2875 58.1348 0
M  V30 20 H 25.2564 6.7446 59.9071 0
M  V30 21 H 25.7346 10.9007 60.6967 0
M  V30 22 H 26.4399 10.3889 62.984 0
M  V30 23 H 25.7953 5.2971 61.4792 0
M  V30 24 H 26.6112 8.063 63.7392 0
M  V30 25 H 25.9402 3.3274 62.7383 0
M  V30 26 H 29.1568 5.8234 65.3378 0
M  V30 27 H 27.3668 2.2287 64.3668 0
M  V30 END ATOM
M  V30 BEGIN BOND
M  V30 1 2 1 2
M  V30 2 1 2 3
M  V30 3 1 2 4
M  V30 4 1 4 5
M  V30 5 2 5 6
M  V30 6 1 5 7
M  V30 7 1 6 8
M  V30 8 2 7 9
M  V30 9 1 8 10
M  V30 10 2 8 11
M  V30 11 1 10 12
M  V30 12 2 12 13
M  V30 13 1 12 14
M  V30 14 1 13 15
M  V30 15 2 14 16
M  V30 16 2 15 17
M  V30 17 1 9 11
M  V30 18 1 16 17
M  V30 19 1 4 18
M  V30 20 1 4 19
M  V30 21 1 6 20
M  V30 22 1 7 21
M  V30 23 1 9 22
M  V30 24 1 10 23
M  V30 25 1 11 24
M  V30 26 1 14 25
M  V30 27 1 15 26
M  V30 28 1 16 27
M  V30 END BOND
M  V30 END CTAB
M  END
>  <Molecule Name>
BMWRKSIJFRXVQQ-VMYUEGETNA-M

>  <hs_clash>
0.0

>  <hs_total>
1.5752145052731628

>  <Total Molweight>
228.230

>  <cLogP>
-0.6146

>  <H-Acceptors>
5

>  <H-Donors>
1

>  <Polar Surface Area>
77.94

>  <Non-H Atoms>
17

>  <sp3-Atoms>
2

$$$$
BJGNCJDXODQBOB-LHTGRELUNA-M
Actelion Java MolfileCreator 2.0

  0  0  0  0  0  0              0 V3000
M  V30 BEGIN CTAB
M  V30 COUNTS 25 27 0 0 0
M  V30 BEGIN ATOM
M  V30 1 S 27.4283 7.6177 62.7244 0
M  V30 2 C 26.3166 7.545 61.559 0
M  V30 3 C 27.174 6.0719 63.2989 0
M  V30 4 N 25.7451 6.3408 61.588 0
M  V30 5 C 26.0011 8.4955 60.6786 0
M  V30 6 C 26.2037 5.5141 62.549 0
M  V30 7 C 27.7539 5.4041 64.2987 0
M  V30 8 S 25.7572 10.1609 60.9993 0
M  V30 9 N 25.7608 8.2346 59.3883 0
M  V30 10 C 25.8057 4.2672 62.8034 0
M  V30 11 C 27.3623 4.105 64.5884 0
M  V30 12 C 26.0034 10.6678 59.3226 0
M  V30 13 C 25.3835 9.4724 58.5894 0 CFG=1
M  V30 14 C 26.3642 3.5164 63.8284 0
M  V30 15 O 27.9478 3.4184 65.6016 0
M  V30 16 C 23.9952 9.5972 58.4704 0
M  V30 17 O 23.5754 10.1463 57.4271 0
M  V30 18 O 23.2843 9.1219 59.3823 0 CHG=-1
M  V30 19 H 28.5293 5.8762 64.8837 0
M  V30 20 H 25.0277 3.8297 62.1953 0
M  V30 21 H 27.0707 10.7844 59.084 0
M  V30 22 H 25.4728 11.6049 59.0973 0
M  V30 23 H 25.8449 9.3995 57.5937 0
M  V30 24 H 26.0323 2.5079 64.0271 0
M  V30 25 H 27.6695 2.5105 65.5718 0
M  V30 END ATOM
M  V30 BEGIN BOND
M  V30 1 1 1 2
M  V30 2 1 1 3
M  V30 3 2 2 4
M  V30 4 1 2 5
M  V30 5 2 3 6
M  V30 6 1 3 7
M  V30 7 1 5 8
M  V30 8 2 5 9
M  V30 9 1 6 10
M  V30 10 2 7 11
M  V30 11 1 8 12
M  V30 12 1 9 13
M  V30 13 2 10 14
M  V30 14 1 11 15
M  V30 15 1 13 16
M  V30 16 2 16 17
M  V30 17 1 16 18
M  V30 18 1 4 6
M  V30 19 1 11 14
M  V30 20 1 12 13
M  V30 21 1 7 19
M  V30 22 1 10 20
M  V30 23 1 12 21
M  V30 24 1 12 22
M  V30 25 1 13 23
M  V30 26 1 14 24
M  V30 27 1 15 25
M  V30 END BOND
M  V30 BEGIN COLLECTION
M  V30 MDLV30/STERAC1 ATOMS=(1 13)
M  V30 END COLLECTION
M  V30 END CTAB
M  END
>  <Molecule Name>
BJGNCJDXODQBOB-LHTGRELUNA-M

>  <hs_clash>
0.0

>  <hs_total>
-3.2834251799115393

>  <Total Molweight>
279.320

>  <cLogP>
-0.913

>  <H-Acceptors>
5

>  <H-Donors>
1

>  <Polar Surface Area>
139.15

>  <Non-H Atoms>
18

>  <sp3-Atoms>
5

$$$$
XUELBKVSGYWSKD-DYARMBNPNA-O
Actelion Java MolfileCreator 2.0

  0  0  0  0  0  0              0 V3000
M  V30 BEGIN CTAB
M  V30 COUNTS 56 59 0 0 0
M  V30 BEGIN ATOM
M  V30 1 Br 24.8143 4.196 63.3946 0
M  V30 2 C 26.4635 4.8766 64.016 0
M  V30 3 C 26.8133 6.2105 63.8074 0
M  V30 4 C 27.266 3.9645 64.6659 0
M  V30 5 N 25.8805 7.025 63.1163 0
M  V30 6 C 28.0474 6.5625 64.3337 0
M  V30 7 N 28.4493 4.2949 65.1578 0
M  V30 8 C 26.2893 8.3821 62.7611 0
M  V30 9 N 28.7155 7.6725 64.325 0
M  V30 10 C 28.8749 5.5208 65.0284 0
M  V30 11 C 27.1433 8.3369 61.5029 0
M  V30 12 C 29.8458 7.4386 64.9368 0
M  V30 13 N 29.9891 6.1341 65.4084 0
M  V30 14 C 26.4608 7.6089 60.3658 0
M  V30 15 C 30.9225 8.4651 65.0124 0
M  V30 16 N 25.3327 8.3651 59.8853 0
M  V30 17 C 30.9413 9.4213 64.0068 0
M  V30 18 C 31.9098 8.4515 65.9791 0
M  V30 19 C 24.0431 8.0425 60.2504 0
M  V30 20 C 31.9326 10.3764 63.9568 0
M  V30 21 C 32.9022 9.4107 65.9281 0
M  V30 22 O 23.7522 7.0508 60.9161 0
M  V30 23 C 22.9673 8.9772 59.8029 0
M  V30 24 C 32.924 10.3649 64.9203 0
M  V30 25 C 21.9066 9.3008 60.8216 0
M  V30 26 C 21.5771 8.4033 59.6886 0
M  V30 27 C 23.2246 10.0665 58.802 0
M  V30 28 O 33.9655 11.3067 64.9141 0
M  V30 29 N 23.4715 9.6105 57.4143 0 CHG=1
M  V30 30 C 33.7104 12.3983 64.0069 0
M  V30 31 H 26.9184 2.9482 64.7777 0
M  V30 32 H 24.9717 6.6817 62.8795 0
M  V30 33 H 25.3969 8.9987 62.5779 0
M  V30 34 H 26.8726 8.8179 63.5857 0
M  V30 35 H 28.4218 8.5417 63.9269 0
M  V30 36 H 27.3564 9.3679 61.1842 0
M  V30 37 H 28.087 7.8224 61.7356 0
M  V30 38 H 27.1784 7.4683 59.5442 0
M  V30 39 H 26.1134 6.6277 60.7214 0
M  V30 40 H 25.4881 9.141 59.2738 0
M  V30 41 H 30.1679 9.4168 63.2531 0
M  V30 42 H 31.9056 7.7054 66.7597 0
M  V30 43 H 31.9352 11.1233 63.1766 0
M  V30 44 H 33.6732 9.4186 66.6841 0
M  V30 45 H 21.9819 8.893 61.8404 0
M  V30 46 H 21.4761 10.3125 60.8628 0
M  V30 47 H 21.4094 7.3313 59.8688 0
M  V30 48 H 20.9038 8.7508 58.8913 0
M  V30 49 H 22.3473 10.7301 58.7898 0
M  V30 50 H 24.1072 10.6319 59.1354 0
M  V30 51 H 23.7508 10.3888 56.8523 0
M  V30 52 H 24.1963 8.922 57.4142 0
M  V30 53 H 22.6336 9.213 57.0405 0
M  V30 54 H 34.5517 13.1062 64.0381 0
M  V30 55 H 33.5981 12.0071 62.9851 0
M  V30 56 H 32.7859 12.9148 64.3052 0
M  V30 END ATOM
M  V30 BEGIN BOND
M  V30 1 1 1 2
M  V30 2 2 2 3
M  V30 3 1 2 4
M  V30 4 1 3 5
M  V30 5 1 3 6
M  V30 6 2 4 7
M  V30 7 1 5 8
M  V30 8 1 6 9
M  V30 9 2 6 10
M  V30 10 1 8 11
M  V30 11 1 9 12
M  V30 12 1 10 13
M  V30 13 1 11 14
M  V30 14 1 12 15
M  V30 15 1 14 16
M  V30 16 2 15 17
M  V30 17 1 15 18
M  V30 18 1 16 19
M  V30 19 1 17 20
M  V30 20 2 18 21
M  V30 21 2 19 22
M  V30 22 1 19 23
M  V30 23 2 20 24
M  V30 24 1 23 25
M  V30 25 1 23 26
M  V30 26 1 23 27
M  V30 27 1 24 28
M  V30 28 1 27 29
M  V30 29 1 28 30
M  V30 30 1 7 10
M  V30 31 2 12 13
M  V30 32 1 21 24
M  V30 33 1 25 26
M  V30 34 1 4 31
M  V30 35 1 5 32
M  V30 36 1 8 33
M  V30 37 1 8 34
M  V30 38 1 9 35
M  V30 39 1 11 36
M  V30 40 1 11 37
M  V30 41 1 14 38
M  V30 42 1 14 39
M  V30 43 1 16 40
M  V30 44 1 17 41
M  V30 45 1 18 42
M  V30 46 1 20 43
M  V30 47 1 21 44
M  V30 48 1 25 45
M  V30 49 1 25 46
M  V30 50 1 26 47
M  V30 51 1 26 48
M  V30 52 1 27 49
M  V30 53 1 27 50
M  V30 54 1 29 51
M  V30 55 1 29 52
M  V30 56 1 29 53
M  V30 57 1 30 54
M  V30 58 1 30 55
M  V30 59 1 30 56
M  V30 END BOND
M  V30 END CTAB
M  END
>  <Molecule Name>
XUELBKVSGYWSKD-DYARMBNPNA-O

>  <hs_clash>
6.0

>  <hs_total>
-8.226999941822797

>  <Total Molweight>
474.381

>  <cLogP>
-1.4149

>  <H-Acceptors>
8

>  <H-Donors>
4

>  <Polar Surface Area>
119.57

>  <Non-H Atoms>
30

>  <sp3-Atoms>
11

$$$$
ORCRDPGEVSKAFA-LXOAACBCNA-M
Actelion Java MolfileCreator 2.0

  0  0  0  0  0  0              0 V3000
M  V30 BEGIN CTAB
M  V30 COUNTS 28 30 0 0 0
M  V30 BEGIN ATOM
M  V30 1 S 25.3791 3.7123 63.4179 0
M  V30 2 C 25.8593 5.3227 62.8725 0
M  V30 3 C 24.2807 3.493 62.0675 0
M  V30 4 N 24.8643 5.8685 62.156 0
M  V30 5 C 26.9307 6.0379 63.2356 0
M  V30 6 C 23.7101 4.891 62.03 0 CFG=2
M  V30 7 N 27.8061 5.5564 64.1304 0
M  V30 8 C 27.1097 7.321 62.7193 0
M  V30 9 C 22.9083 5.1022 60.8813 0
M  V30 10 C 28.8564 6.2902 64.5162 0
M  V30 11 C 28.1979 8.0895 63.1178 0
M  V30 12 O 22.2243 4.1509 60.4324 0
M  V30 13 O 22.8714 6.2616 60.4015 0 CHG=-1
M  V30 14 C 29.726 5.7542 65.4272 0
M  V30 15 C 29.087 7.5667 64.0341 0
M  V30 16 O 29.3792 4.5107 65.8256 0
M  V30 17 C 30.8343 6.4735 65.8736 0
M  V30 18 C 30.1909 8.2958 64.4541 0
M  V30 19 C 31.0638 7.7497 65.3835 0
M  V30 20 H 24.8094 3.2342 61.1385 0
M  V30 21 H 23.5112 2.735 62.2753 0
M  V30 22 H 23.0799 5.0125 62.9235 0
M  V30 23 H 26.4011 7.719 62.0078 0
M  V30 24 H 28.345 9.0814 62.7165 0
M  V30 25 H 28.5813 4.2466 65.3824 0
M  V30 26 H 31.509 6.0392 66.5965 0
M  V30 27 H 30.3695 9.2848 64.0588 0
M  V30 28 H 31.9182 8.3162 65.7235 0
M  V30 END ATOM
M  V30 BEGIN BOND
M  V30 1 1 1 2
M  V30 2 1 1 3
M  V30 3 2 2 4
M  V30 4 1 2 5
M  V30 5 1 3 6
M  V30 6 2 5 7
M  V30 7 1 5 8
M  V30 8 1 6 9
M  V30 9 1 7 10
M  V30 10 2 8 11
M  V30 11 2 9 12
M  V30 12 1 9 13
M  V30 13 2 10 14
M  V30 14 1 10 15
M  V30 15 1 14 16
M  V30 16 1 14 17
M  V30 17 2 15 18
M  V30 18 2 17 19
M  V30 19 1 4 6
M  V30 20 1 11 15
M  V30 21 1 18 19
M  V30 22 1 3 20
M  V30 23 1 3 21
M  V30 24 1 6 22
M  V30 25 1 8 23
M  V30 26 1 11 24
M  V30 27 1 16 25
M  V30 28 1 17 26
M  V30 29 1 18 27
M  V30 30 1 19 28
M  V30 END BOND
M  V30 BEGIN COLLECTION
M  V30 MDLV30/STERAC1 ATOMS=(1 6)
M  V30 END COLLECTION
M  V30 END CTAB
M  END
>  <Molecule Name>
ORCRDPGEVSKAFA-LXOAACBCNA-M

>  <hs_clash>
4.0

>  <hs_total>
-12.719197742686156

>  <Total Molweight>
273.291

>  <cLogP>
-0.5502

>  <H-Acceptors>
5

>  <H-Donors>
1

>  <Polar Surface Area>
110.91

>  <Non-H Atoms>
19

>  <sp3-Atoms>
5

$$$$
RBPYXJCCKORRRN-XWKXFZRBNA-N
Actelion Java MolfileCreator 2.0

  0  0  0  0  0  0              0 V3000
M  V30 BEGIN CTAB
M  V30 COUNTS 22 24 0 0 0
M  V30 BEGIN ATOM
M  V30 1 N 29.4508 5.9985 65.4078 0
M  V30 2 C 29.3397 7.1457 64.7536 0
M  V30 3 C 28.2902 5.2805 65.0271 0
M  V30 4 N 30.3265 8.193 64.792 0
M  V30 5 N 28.2029 7.2709 64.0025 0
M  V30 6 C 27.503 6.0611 64.1706 0
M  V30 7 C 27.8864 4.0043 65.3565 0
M  V30 8 C 31.4569 8.2559 65.6136 0
M  V30 9 C 30.3324 9.3643 64.0189 0
M  V30 10 C 26.3198 5.5935 63.6219 0
M  V30 11 C 26.6881 3.5297 64.8265 0
M  V30 12 N 32.1572 9.3659 65.4048 0
M  V30 13 C 31.4485 10.0622 64.4067 0
M  V30 14 C 25.916 4.3072 63.977 0
M  V30 15 H 27.9269 8.0573 63.4499 0
M  V30 16 H 28.4848 3.3867 66.01 0
M  V30 17 H 31.7277 7.4947 66.3304 0
M  V30 18 H 29.608 9.6563 63.2729 0
M  V30 19 H 25.7343 6.2005 62.9468 0
M  V30 20 H 26.3538 2.5355 65.0829 0
M  V30 21 H 31.7441 11.0183 64.0006 0
M  V30 22 H 24.9904 3.9115 63.5856 0
M  V30 END ATOM
M  V30 BEGIN BOND
M  V30 1 2 1 2
M  V30 2 1 1 3
M  V30 3 1 2 4
M  V30 4 1 2 5
M  V30 5 2 3 6
M  V30 6 1 3 7
M  V30 7 1 4 8
M  V30 8 1 4 9
M  V30 9 1 6 10
M  V30 10 2 7 11
M  V30 11 2 8 12
M  V30 12 2 9 13
M  V30 13 2 10 14
M  V30 14 1 5 6
M  V30 15 1 11 14
M  V30 16 1 12 13
M  V30 17 1 5 15
M  V30 18 1 7 16
M  V30 19 1 8 17
M  V30 20 1 9 18
M  V30 21 1 10 19
M  V30 22 1 11 20
M  V30 23 1 13 21
M  V30 24 1 14 22
M  V30 END BOND
M  V30 END CTAB
M  END
>  <Molecule Name>
RBPYXJCCKORRRN-XWKXFZRBNA-N

>  <hs_clash>
0.0

>  <hs_total>
-32.01772473323176

>  <Total Molweight>
184.202

>  <cLogP>
1.5191

>  <H-Acceptors>
4

>  <H-Donors>
1

>  <Polar Surface Area>
46.5

>  <Non-H Atoms>
14

>  <sp3-Atoms>
0

$$$$
BNDYIYYKEIXHNK-LVJZVDRKNA-M
Actelion Java MolfileCreator 2.0

  0  0  0  0  0  0              0 V3000
M  V30 BEGIN CTAB
M  V30 COUNTS 36 38 0 0 0
M  V30 BEGIN ATOM
M  V30 1 O 31.7028 8.1143 66.3664 0
M  V30 2 C 30.6819 7.3776 65.7139 0
M  V30 3 C 32.6871 7.5318 67.229 0
M  V30 4 C 29.9561 8.0732 64.5899 0
M  V30 5 C 30.2812 6.0073 66.0981 0
M  V30 6 O 30.4109 9.382 64.2439 0
M  V30 7 C 28.7862 7.4046 63.9302 0
M  V30 8 C 29.1337 5.3468 65.4639 0
M  V30 9 C 29.7494 10.1572 63.2382 0
M  V30 10 C 28.3182 6.0799 64.3695 0
M  V30 11 N 28.744 4.0244 65.8452 0
M  V30 12 C 27.1148 5.3608 63.8423 0
M  V30 13 C 27.6561 3.3846 65.2585 0
M  V30 14 N 26.8747 4.012 64.3009 0
M  V30 15 N 26.2273 5.9503 62.9065 0
M  V30 16 C 25.0643 5.5619 62.2215 0
M  V30 17 C 24.502 6.5953 61.3212 0
M  V30 18 C 24.3477 4.246 62.3157 0
M  V30 19 C 23.2655 6.3399 60.5517 0
M  V30 20 C 23.1535 3.9745 61.4963 0
M  V30 21 O 22.6994 7.3305 59.7792 0 CHG=-1
M  V30 22 C 22.6173 5.0243 60.6101 0
M  V30 23 H 33.3584 8.3185 67.6041 0
M  V30 24 H 32.187 7.0418 68.0776 0
M  V30 25 H 33.2714 6.7878 66.6682 0
M  V30 26 H 30.8418 5.4837 66.8582 0
M  V30 27 H 28.2782 7.9044 63.1187 0
M  V30 28 H 30.2573 11.127 63.1288 0
M  V30 29 H 29.78 9.6173 62.2803 0
M  V30 30 H 28.7024 10.323 63.5324 0
M  V30 31 H 27.415 2.3751 65.5568 0
M  V30 32 H 26.1837 6.9342 63.0811 0
M  V30 33 H 25.0017 7.5482 61.226 0
M  V30 34 H 24.7121 3.4884 62.9935 0
M  V30 35 H 22.6719 3.009 61.5445 0
M  V30 36 H 21.7466 4.8247 60.003 0
M  V30 END ATOM
M  V30 BEGIN BOND
M  V30 1 1 1 2
M  V30 2 1 1 3
M  V30 3 1 2 4
M  V30 4 2 2 5
M  V30 5 1 4 6
M  V30 6 2 4 7
M  V30 7 1 5 8
M  V30 8 1 6 9
M  V30 9 1 7 10
M  V30 10 2 8 11
M  V30 11 2 10 12
M  V30 12 1 11 13
M  V30 13 1 12 14
M  V30 14 1 12 15
M  V30 15 1 15 16
M  V30 16 2 16 17
M  V30 17 1 16 18
M  V30 18 1 17 19
M  V30 19 2 18 20
M  V30 20 1 19 21
M  V30 21 2 19 22
M  V30 22 1 8 10
M  V30 23 2 13 14
M  V30 24 1 20 22
M  V30 25 1 3 23
M  V30 26 1 3 24
M  V30 27 1 3 25
M  V30 28 1 5 26
M  V30 29 1 7 27
M  V30 30 1 9 28
M  V30 31 1 9 29
M  V30 32 1 9 30
M  V30 33 1 13 31
M  V30 34 1 15 32
M  V30 35 1 17 33
M  V30 36 1 18 34
M  V30 37 1 20 35
M  V30 38 1 22 36
M  V30 END BOND
M  V30 END CTAB
M  END
>  <Molecule Name>
BNDYIYYKEIXHNK-LVJZVDRKNA-M

>  <hs_clash>
8.0

>  <hs_total>
-35.665794605590065

>  <Total Molweight>
296.305

>  <cLogP>
1.2314

>  <H-Acceptors>
6

>  <H-Donors>
1

>  <Polar Surface Area>
79.33

>  <Non-H Atoms>
22

>  <sp3-Atoms>
5

$$$$
RRHORVAOECWFPT-UHFFFAOYNA-N
Actelion Java MolfileCreator 2.0

  0  0  0  0  0  0              0 V3000
M  V30 BEGIN CTAB
M  V30 COUNTS 15 16 0 0 0
M  V30 BEGIN ATOM
M  V30 1 N 24.289 4.469 62.7675 0
M  V30 2 C 25.23 4.4863 63.4113 0
M  V30 3 C 26.4013 4.5063 64.2151 0
M  V30 4 C 27.1928 5.6204 64.5033 0
M  V30 5 C 26.9603 3.437 64.8615 0
M  V30 6 N 27.1362 6.918 64.1435 0
M  V30 7 N 28.183 5.1153 65.3154 0
M  V30 8 N 28.0511 3.7841 65.5374 0
M  V30 9 C 28.0972 7.7193 64.6177 0
M  V30 10 C 29.1441 5.9254 65.7684 0
M  V30 11 C 29.1139 7.2557 65.4264 0
M  V30 12 H 26.5629 2.4333 64.827 0
M  V30 13 H 28.076 8.7674 64.3577 0
M  V30 14 H 29.9343 5.5396 66.3952 0
M  V30 15 H 29.8769 7.9302 65.7863 0
M  V30 END ATOM
M  V30 BEGIN BOND
M  V30 1 3 1 2
M  V30 2 1 2 3
M  V30 3 2 3 4
M  V30 4 1 3 5
M  V30 5 1 4 6
M  V30 6 1 4 7
M  V30 7 2 5 8
M  V30 8 2 6 9
M  V30 9 1 7 10
M  V30 10 1 9 11
M  V30 11 1 7 8
M  V30 12 2 10 11
M  V30 13 1 5 12
M  V30 14 1 9 13
M  V30 15 1 10 14
M  V30 16 1 11 15
M  V30 END BOND
M  V30 END CTAB
M  END
>  <Molecule Name>
RRHORVAOECWFPT-UHFFFAOYNA-N

>  <hs_clash>
0.0

>  <hs_total>
nan

>  <Total Molweight>
144.137

>  <cLogP>
-0.6021

>  <H-Acceptors>
4

>  <H-Donors>
0

>  <Polar Surface Area>
53.98

>  <Non-H Atoms>
11

>  <sp3-Atoms>
0

$$$$
CMWWYSDXIZEJPA-UHFFFAOYNA-N
Actelion Java MolfileCreator 2.0

  0  0  0  0  0  0              0 V3000
M  V30 BEGIN CTAB
M  V30 COUNTS 37 40 0 0 0
M  V30 BEGIN ATOM
M  V30 1 S 25.466 8.1432 63.1341 0
M  V30 2 C 25.5736 6.54 63.6165 0
M  V30 3 C 24.0412 8.0101 62.2214 0
M  V30 4 C 26.4979 5.8617 64.3835 0
M  V30 5 C 24.4795 5.9208 63.0179 0
M  V30 6 N 23.6756 6.723 62.2704 0
M  V30 7 C 23.5376 9.1508 61.6081 0
M  V30 8 N 27.6632 6.4302 64.7146 0
M  V30 9 C 26.2015 4.5759 64.7682 0
M  V30 10 C 24.2198 4.4276 63.1947 0
M  V30 11 C 28.5385 5.7561 65.4487 0
M  V30 12 C 27.1361 3.8755 65.5154 0
M  V30 13 C 24.8944 3.8735 64.4356 0
M  V30 14 N 28.2571 4.4935 65.8144 0
M  V30 15 N 29.7273 6.2398 65.8032 0
M  V30 16 C 30.1356 7.4966 65.8812 0
M  V30 17 C 29.995 8.3687 64.8245 0
M  V30 18 C 30.8462 7.9132 67.004 0
M  V30 19 C 30.491 9.6687 64.9322 0
M  V30 20 C 31.3589 9.2032 67.1249 0
M  V30 21 N 30.3468 10.5242 63.9138 0 CHG=1
M  V30 22 C 31.1781 10.0854 66.071 0
M  V30 23 O 31.3726 11.5454 63.6992 0
M  V30 24 O 29.2119 10.4296 63.0127 0 CHG=-1
M  V30 25 H 24.2839 9.55 60.9058 0
M  V30 26 H 22.6179 8.8969 61.0603 0
M  V30 27 H 23.311 9.9088 62.3725 0
M  V30 28 H 23.1349 4.2637 63.2777 0
M  V30 29 H 24.6048 3.8942 62.3133 0
M  V30 30 H 26.9503 2.8622 65.839 0
M  V30 31 H 24.2082 3.9879 65.2879 0
M  V30 32 H 25.1024 2.8058 64.2732 0
M  V30 33 H 29.5035 8.0486 63.9176 0
M  V30 34 H 31.7057 7.2325 67.0926 0
M  V30 35 H 30.1741 7.7691 67.8631 0
M  V30 36 H 31.8837 9.5085 68.0181 0
M  V30 37 H 31.5679 11.0908 66.1321 0
M  V30 END ATOM
M  V30 BEGIN BOND
M  V30 1 1 1 2
M  V30 2 1 1 3
M  V30 3 1 2 4
M  V30 4 2 2 5
M  V30 5 2 3 6
M  V30 6 1 3 7
M  V30 7 2 4 8
M  V30 8 1 4 9
M  V30 9 1 5 10
M  V30 10 1 8 11
M  V30 11 2 9 12
M  V30 12 1 9 13
M  V30 13 2 11 14
M  V30 14 1 11 15
M  V30 15 2 15 16
M  V30 16 1 16 17
M  V30 17 1 16 18
M  V30 18 2 17 19
M  V30 19 1 18 20
M  V30 20 1 19 21
M  V30 21 1 19 22
M  V30 22 2 21 23
M  V30 23 1 21 24
M  V30 24 1 5 6
M  V30 25 1 10 13
M  V30 26 1 12 14
M  V30 27 2 20 22
M  V30 28 1 7 25
M  V30 29 1 7 26
M  V30 30 1 7 27
M  V30 31 1 10 28
M  V30 32 1 10 29
M  V30 33 1 12 30
M  V30 34 1 13 31
M  V30 35 1 13 32
M  V30 36 1 17 33
M  V30 37 1 18 34
M  V30 38 1 18 35
M  V30 39 1 20 36
M  V30 40 1 22 37
M  V30 END BOND
M  V30 END CTAB
M  END
>  <Molecule Name>
CMWWYSDXIZEJPA-UHFFFAOYNA-N

>  <hs_clash>
0.0

>  <hs_total>
nan

>  <Total Molweight>
339.378

>  <cLogP>
1.6248

>  <H-Acceptors>
7

>  <H-Donors>
0

>  <Polar Surface Area>
125.09

>  <Non-H Atoms>
24

>  <sp3-Atoms>
5

$$$$
CMWWYSDXIZEJPA-ODLFYWEKNA-N
Actelion Java MolfileCreator 2.0

  0  0  0  0  0  0              0 V3000
M  V30 BEGIN CTAB
M  V30 COUNTS 37 40 0 0 0
M  V30 BEGIN ATOM
M  V30 1 S 25.1242 7.5272 63.178 0
M  V30 2 C 25.3915 5.9506 63.6999 0
M  V30 3 C 23.749 7.237 62.2216 0
M  V30 4 C 26.3598 5.3535 64.5012 0
M  V30 5 C 24.3722 5.2204 63.0912 0
M  V30 6 N 23.5404 5.926 62.3114 0
M  V30 7 C 23.0775 8.2458 61.5252 0
M  V30 8 N 27.4415 6.0224 64.8975 0
M  V30 9 C 26.1737 4.0277 64.8463 0
M  V30 10 C 24.2292 3.7084 63.2359 0
M  V30 11 C 28.3414 5.4211 65.6666 0
M  V30 12 C 27.1365 3.4049 65.6304 0
M  V30 13 C 24.9499 3.1989 64.4712 0
M  V30 14 N 28.1585 4.1425 66.0112 0
M  V30 15 N 29.476 5.9741 66.0763 0
M  V30 16 C 29.9362 7.2014 65.7689 0
M  V30 17 C 29.4407 7.9534 64.7078 0
M  V30 18 C 30.9488 7.7528 66.5762 0
M  V30 19 C 29.9661 9.2217 64.4916 0
M  V30 20 C 31.4742 9.0219 66.3702 0
M  V30 21 N 29.4646 9.9562 63.4996 0 CHG=1
M  V30 22 C 30.9722 9.7553 65.305 0
M  V30 23 O 29.8401 11.3574 63.3704 0
M  V30 24 O 28.5312 9.3844 62.5638 0 CHG=-1
M  V30 25 H 23.7656 8.7181 60.8086 0
M  V30 26 H 22.2245 7.8117 60.9827 0
M  V30 27 H 22.7129 9.0022 62.2362 0
M  V30 28 H 23.1614 3.4559 63.3152 0
M  V30 29 H 24.656 3.2221 62.3464 0
M  V30 30 H 27.0508 2.3663 65.9142 0
M  V30 31 H 24.2461 3.2148 65.3168 0
M  V30 32 H 25.2743 2.1647 64.2836 0
M  V30 33 H 28.6651 7.5604 64.0671 0
M  V30 34 H 31.7992 7.0584 66.5115 0
M  V30 35 H 30.5521 7.7524 67.6024 0
M  V30 36 H 32.2437 9.4221 67.0139 0
M  V30 37 H 31.3597 10.7429 65.1022 0
M  V30 END ATOM
M  V30 BEGIN BOND
M  V30 1 1 1 2
M  V30 2 1 1 3
M  V30 3 1 2 4
M  V30 4 2 2 5
M  V30 5 2 3 6
M  V30 6 1 3 7
M  V30 7 2 4 8
M  V30 8 1 4 9
M  V30 9 1 5 10
M  V30 10 1 8 11
M  V30 11 2 9 12
M  V30 12 1 9 13
M  V30 13 2 11 14
M  V30 14 1 11 15
M  V30 15 2 15 16
M  V30 16 1 16 17
M  V30 17 1 16 18
M  V30 18 2 17 19
M  V30 19 1 18 20
M  V30 20 1 19 21
M  V30 21 1 19 22
M  V30 22 2 21 23
M  V30 23 1 21 24
M  V30 24 1 5 6
M  V30 25 1 10 13
M  V30 26 1 12 14
M  V30 27 2 20 22
M  V30 28 1 7 25
M  V30 29 1 7 26
M  V30 30 1 7 27
M  V30 31 1 10 28
M  V30 32 1 10 29
M  V30 33 1 12 30
M  V30 34 1 13 31
M  V30 35 1 13 32
M  V30 36 1 17 33
M  V30 37 1 18 34
M  V30 38 1 18 35
M  V30 39 1 20 36
M  V30 40 1 22 37
M  V30 END BOND
M  V30 END CTAB
M  END
>  <Molecule Name>
CMWWYSDXIZEJPA-ODLFYWEKNA-N

>  <hs_clash>
0.0

>  <hs_total>
nan

>  <Total Molweight>
339.378

>  <cLogP>
1.6248

>  <H-Acceptors>
7

>  <H-Donors>
0

>  <Polar Surface Area>
125.09

>  <Non-H Atoms>
24

>  <sp3-Atoms>
5

$$$$
NKUOWCWVEBHJCR-UHFFFAOYNA-N
Actelion Java MolfileCreator 2.0

  0  0  0  0  0  0              0 V3000
M  V30 BEGIN CTAB
M  V30 COUNTS 35 38 0 0 0
M  V30 BEGIN ATOM
M  V30 1 Cl 27.5031 7.2955 60.6093 0
M  V30 2 C 26.8225 8.6701 61.4075 0
M  V30 3 C 26.9073 8.8518 62.8289 0
M  V30 4 C 26.1561 9.6442 60.6088 0
M  V30 5 C 27.6214 7.8313 63.7164 0
M  V30 6 C 26.3117 10.0154 63.4399 0
M  V30 7 C 25.5755 10.7911 61.2179 0
M  V30 8 N 26.9234 6.7209 63.7668 0
M  V30 9 C 28.9788 8.2163 64.3705 0
M  V30 10 C 25.6513 10.9757 62.6253 0
M  V30 11 C 27.2778 5.5648 64.4689 0
M  V30 12 C 29.7115 7.3744 65.2856 0
M  V30 13 C 29.5572 9.5102 64.0458 0
M  V30 14 C 28.3345 5.258 65.3466 0
M  V30 15 C 26.522 4.4197 64.3682 0
M  V30 16 N 29.3258 6.0913 65.7325 0
M  V30 17 C 30.9726 7.8574 65.8207 0
M  V30 18 C 30.793 9.9632 64.5874 0
M  V30 19 N 28.252 3.9927 65.7758 0
M  V30 20 N 27.1536 3.514 65.1704 0
M  V30 21 C 25.2959 4.0989 63.6065 0
M  V30 22 C 31.512 9.1308 65.4835 0
M  V30 23 N 31.3072 11.31 64.2137 0 CHG=1
M  V30 24 O 32.3709 11.7023 64.7298 0
M  V30 25 O 30.6362 11.9912 63.4193 0 CHG=-1
M  V30 26 H 26.0915 9.5116 59.5393 0
M  V30 27 H 26.367 10.1563 64.5094 0
M  V30 28 H 25.0733 11.5266 60.6068 0
M  V30 29 H 25.2053 11.8492 63.0778 0
M  V30 30 H 29.0252 10.1565 63.3632 0
M  V30 31 H 31.5226 7.2253 66.5022 0
M  V30 32 H 25.4862 4.231 62.5315 0
M  V30 33 H 25.005 3.0563 63.8022 0
M  V30 34 H 24.4831 4.7709 63.9201 0
M  V30 35 H 32.4522 9.4575 65.9022 0
M  V30 END ATOM
M  V30 BEGIN BOND
M  V30 1 1 1 2
M  V30 2 2 2 3
M  V30 3 1 2 4
M  V30 4 1 3 5
M  V30 5 1 3 6
M  V30 6 2 4 7
M  V30 7 1 5 8
M  V30 8 2 5 9
M  V30 9 2 6 10
M  V30 10 2 8 11
M  V30 11 1 9 12
M  V30 12 1 9 13
M  V30 13 1 11 14
M  V30 14 1 11 15
M  V30 15 2 12 16
M  V30 16 1 12 17
M  V30 17 2 13 18
M  V30 18 2 14 19
M  V30 19 2 15 20
M  V30 20 1 15 21
M  V30 21 2 17 22
M  V30 22 1 18 23
M  V30 23 2 23 24
M  V30 24 1 23 25
M  V30 25 1 7 10
M  V30 26 1 14 16
M  V30 27 1 18 22
M  V30 28 1 19 20
M  V30 29 1 4 26
M  V30 30 1 6 27
M  V30 31 1 7 28
M  V30 32 1 10 29
M  V30 33 1 13 30
M  V30 34 1 17 31
M  V30 35 1 21 32
M  V30 36 1 21 33
M  V30 37 1 21 34
M  V30 38 1 22 35
M  V30 END BOND
M  V30 END CTAB
M  END
>  <Molecule Name>
NKUOWCWVEBHJCR-UHFFFAOYNA-N

>  <hs_clash>
0.0

>  <hs_total>
nan

>  <Total Molweight>
351.752

>  <cLogP>
2.4969

>  <H-Acceptors>
7

>  <H-Donors>
0

>  <Polar Surface Area>
95.26

>  <Non-H Atoms>
25

>  <sp3-Atoms>
2

$$$$
BXTMIVXDDUNPOP-UHFFFAOYNA-N
Actelion Java MolfileCreator 2.0

  0  0  0  0  0  0              0 V3000
M  V30 BEGIN CTAB
M  V30 COUNTS 35 36 0 0 0
M  V30 BEGIN ATOM
M  V30 1 O 29.6499 3.7985 65.9291 0
M  V30 2 C 29.2418 4.8846 65.4826 0
M  V30 3 O 30.0479 6.0681 65.699 0
M  V30 4 C 28.0005 4.9302 64.6671 0
M  V30 5 C 31.3386 5.5276 66.1581 0
M  V30 6 C 27.6851 6.1477 64.0019 0
M  V30 7 C 27.2173 3.7308 64.5296 0
M  V30 8 C 26.5407 6.1856 63.1992 0
M  V30 9 C 26.0762 3.7967 63.7335 0
M  V30 10 C 25.7121 4.9601 63.0539 0
M  V30 11 C 26.1454 7.4181 62.4048 0
M  V30 12 N 24.5115 5.1683 62.3205 0
M  V30 13 C 25.8558 6.8224 61.015 0
M  V30 14 C 23.2991 4.7828 62.9043 0
M  V30 15 C 24.5427 6.0326 61.0763 0
M  V30 16 O 22.279 4.8423 62.2201 0
M  V30 17 C 23.0802 4.2838 64.3612 0
M  V30 18 C 21.9797 3.1801 64.4154 0
M  V30 19 H 32.0348 6.3566 66.3543 0
M  V30 20 H 31.1864 4.9507 67.0822 0
M  V30 21 H 31.7584 4.8721 65.3813 0
M  V30 22 H 28.3125 7.0196 64.1142 0
M  V30 23 H 27.5031 2.8149 65.0251 0
M  V30 24 H 25.4532 2.9196 63.6394 0
M  V30 25 H 26.9674 8.1479 62.3637 0
M  V30 26 H 25.2505 7.8975 62.8288 0
M  V30 27 H 25.7645 7.6338 60.2777 0
M  V30 28 H 26.6768 6.1517 60.7229 0
M  V30 29 H 23.6963 6.7351 61.1 0
M  V30 30 H 24.4622 5.3915 60.1863 0
M  V30 31 H 22.7697 5.1323 64.9892 0
M  V30 32 H 24.0242 3.8699 64.7453 0
M  V30 33 H 21.8453 2.846 65.4549 0
M  V30 34 H 21.0313 3.5891 64.0366 0
M  V30 35 H 22.2857 2.3267 63.7925 0
M  V30 END ATOM
M  V30 BEGIN BOND
M  V30 1 2 1 2
M  V30 2 1 2 3
M  V30 3 1 2 4
M  V30 4 1 3 5
M  V30 5 2 4 6
M  V30 6 1 4 7
M  V30 7 1 6 8
M  V30 8 2 7 9
M  V30 9 2 8 10
M  V30 10 1 8 11
M  V30 11 1 10 12
M  V30 12 1 11 13
M  V30 13 1 12 14
M  V30 14 1 12 15
M  V30 15 2 14 16
M  V30 16 1 14 17
M  V30 17 1 17 18
M  V30 18 1 9 10
M  V30 19 1 13 15
M  V30 20 1 5 19
M  V30 21 1 5 20
M  V30 22 1 5 21
M  V30 23 1 6 22
M  V30 24 1 7 23
M  V30 25 1 9 24
M  V30 26 1 11 25
M  V30 27 1 11 26
M  V30 28 1 13 27
M  V30 29 1 13 28
M  V30 30 1 15 29
M  V30 31 1 15 30
M  V30 32 1 17 31
M  V30 33 1 17 32
M  V30 34 1 18 33
M  V30 35 1 18 34
M  V30 36 1 18 35
M  V30 END BOND
M  V30 END CTAB
M  END
>  <Molecule Name>
BXTMIVXDDUNPOP-UHFFFAOYNA-N

>  <hs_clash>
17.0

>  <hs_total>
nan

>  <Total Molweight>
247.293

>  <cLogP>
2.4595

>  <H-Acceptors>
4

>  <H-Donors>
0

>  <Polar Surface Area>
46.61

>  <Non-H Atoms>
18

>  <sp3-Atoms>
7

$$$$
YOVNJNUSCDKCER-UHFFFAOYNA-N
Actelion Java MolfileCreator 2.0

  0  0  0  0  0  0              0 V3000
M  V30 BEGIN CTAB
M  V30 COUNTS 44 46 0 0 0
M  V30 BEGIN ATOM
M  V30 1 O 29.0547 3.9488 65.5124 0
M  V30 2 C 28.6007 4.9127 64.9016 0
M  V30 3 O 29.3103 6.1788 64.925 0
M  V30 4 C 27.3103 4.818 64.1509 0
M  V30 5 C 30.4673 6.3135 65.7318 0
M  V30 6 C 26.8925 5.8981 63.3776 0
M  V30 7 C 26.5585 3.6495 64.218 0
M  V30 8 C 25.6961 5.8192 62.6973 0
M  V30 9 C 25.3528 3.5264 63.5459 0
M  V30 10 N 25.2656 6.8719 61.8762 0
M  V30 11 C 24.8824 4.5906 62.7719 0
M  V30 12 C 24.0035 6.746 61.1434 0
M  V30 13 C 26.1607 8.0179 61.6984 0
M  V30 14 N 23.677 4.6275 62.0485 0
M  V30 15 C 23.8026 5.2754 60.7543 0
M  V30 16 C 25.434 9.0921 60.8992 0
M  V30 17 C 22.497 4.2438 62.5726 0
M  V30 18 C 26.3519 10.2913 60.6872 0
M  V30 19 C 26.1484 9.2823 59.5675 0
M  V30 20 O 21.495 4.0929 61.913 0
M  V30 21 C 22.3297 4.0148 64.0589 0
M  V30 22 C 21.8851 2.5831 64.2812 0
M  V30 23 H 30.8715 7.3312 65.6271 0
M  V30 24 H 30.2039 6.1305 66.784 0
M  V30 25 H 31.2247 5.5835 65.4108 0
M  V30 26 H 27.4996 6.7889 63.3116 0
M  V30 27 H 26.9224 2.8205 64.8067 0
M  V30 28 H 24.7804 2.6138 63.6198 0
M  V30 29 H 24.0392 7.3671 60.2363 0
M  V30 30 H 23.1707 7.0766 61.7814 0
M  V30 31 H 27.063 7.7006 61.1558 0
M  V30 32 H 26.4465 8.4194 62.6821 0
M  V30 33 H 24.6688 4.8889 60.1978 0
M  V30 34 H 22.8914 5.1436 60.1524 0
M  V30 35 H 24.3444 9.2208 60.9815 0
M  V30 36 H 25.926 11.3019 60.6012 0
M  V30 37 H 27.3173 10.3441 61.2116 0
M  V30 38 H 25.5756 9.5634 58.6717 0
M  V30 39 H 26.9671 8.6056 59.2821 0
M  V30 40 H 23.2876 4.1889 64.5706 0
M  V30 41 H 21.5707 4.7044 64.4572 0
M  V30 42 H 21.7591 2.4008 65.3589 0
M  V30 43 H 20.9282 2.4125 63.7664 0
M  V30 44 H 22.6451 1.8968 63.88 0
M  V30 END ATOM
M  V30 BEGIN BOND
M  V30 1 2 1 2
M  V30 2 1 2 3
M  V30 3 1 2 4
M  V30 4 1 3 5
M  V30 5 2 4 6
M  V30 6 1 4 7
M  V30 7 1 6 8
M  V30 8 2 7 9
M  V30 9 1 8 10
M  V30 10 2 8 11
M  V30 11 1 10 12
M  V30 12 1 10 13
M  V30 13 1 11 14
M  V30 14 1 12 15
M  V30 15 1 13 16
M  V30 16 1 14 17
M  V30 17 1 16 18
M  V30 18 1 16 19
M  V30 19 2 17 20
M  V30 20 1 17 21
M  V30 21 1 21 22
M  V30 22 1 9 11
M  V30 23 1 14 15
M  V30 24 1 18 19
M  V30 25 1 5 23
M  V30 26 1 5 24
M  V30 27 1 5 25
M  V30 28 1 6 26
M  V30 29 1 7 27
M  V30 30 1 9 28
M  V30 31 1 12 29
M  V30 32 1 12 30
M  V30 33 1 13 31
M  V30 34 1 13 32
M  V30 35 1 15 33
M  V30 36 1 15 34
M  V30 37 1 16 35
M  V30 38 1 18 36
M  V30 39 1 18 37
M  V30 40 1 19 38
M  V30 41 1 19 39
M  V30 42 1 21 40
M  V30 43 1 21 41
M  V30 44 1 22 42
M  V30 45 1 22 43
M  V30 46 1 22 44
M  V30 END BOND
M  V30 END CTAB
M  END
>  <Molecule Name>
YOVNJNUSCDKCER-UHFFFAOYNA-N

>  <hs_clash>
31.0

>  <hs_total>
nan

>  <Total Molweight>
302.373

>  <cLogP>
2.4029

>  <H-Acceptors>
5

>  <H-Donors>
0

>  <Polar Surface Area>
49.85

>  <Non-H Atoms>
22

>  <sp3-Atoms>
11

$$$$
FWEOQOXTVHGIFQ-FZMAWFKONA-M
Actelion Java MolfileCreator 2.0

  0  0  0  0  0  0              0 V3000
M  V30 BEGIN CTAB
M  V30 COUNTS 33 35 0 0 0
M  V30 BEGIN ATOM
M  V30 1 S 20.8422 2.8167 59.4437 0
M  V30 2 O 20.0277 3.5627 60.3882 0
M  V30 3 O 20.5364 3.2423 58.0716 0
M  V30 4 O 22.4034 3.09 59.7317 0 CHG=-1
M  V30 5 C 20.5638 1.0603 59.5645 0
M  V30 6 C 19.2365 0.425 59.5968 0
M  V30 7 C 21.7525 0.2672 59.6325 0
M  V30 8 C 17.9238 1.1014 59.5279 0
M  V30 9 C 19.2345 -1.1067 59.7116 0
M  V30 10 C 21.7245 -1.1378 59.731 0
M  V30 11 N 17.8349 2.4333 59.4159 0
M  V30 12 C 16.7308 0.2933 59.5792 0
M  V30 13 C 20.4984 -1.8257 59.7737 0
M  V30 14 C 17.9975 -1.8045 59.7523 0
M  V30 15 C 16.7343 3.1396 59.161 0
M  V30 16 C 16.7779 -1.1046 59.688 0
M  V30 17 C 16.3176 4.1379 60.0889 0
M  V30 18 C 15.9461 2.9412 57.9686 0
M  V30 19 C 15.1487 4.9198 59.8468 0
M  V30 20 C 14.7791 3.7267 57.735 0
M  V30 21 C 14.381 4.7133 58.6704 0
M  V30 22 H 22.7101 0.7662 59.6072 0
M  V30 23 H 22.6511 -1.6907 59.7743 0
M  V30 24 H 18.4776 2.9172 60.0098 0
M  V30 25 H 15.768 0.7809 59.5321 0
M  V30 26 H 20.4947 -2.9026 59.8534 0
M  V30 27 H 17.9929 -2.8813 59.8336 0
M  V30 28 H 15.8517 -1.6592 59.7234 0
M  V30 29 H 16.8937 4.3051 60.9871 0
M  V30 30 H 16.2421 2.1932 57.2486 0
M  V30 31 H 14.8465 5.6716 60.5612 0
M  V30 32 H 14.1954 3.5685 56.8402 0
M  V30 33 H 13.4964 5.3064 58.4895 0
M  V30 END ATOM
M  V30 BEGIN BOND
M  V30 1 2 1 2
M  V30 2 2 1 3
M  V30 3 1 1 4
M  V30 4 1 1 5
M  V30 5 1 5 6
M  V30 6 2 5 7
M  V30 7 2 6 8
M  V30 8 1 6 9
M  V30 9 1 7 10
M  V30 10 1 8 11
M  V30 11 1 8 12
M  V30 12 1 9 13
M  V30 13 2 9 14
M  V30 14 1 11 15
M  V30 15 2 12 16
M  V30 16 2 15 17
M  V30 17 1 15 18
M  V30 18 1 17 19
M  V30 19 2 18 20
M  V30 20 2 19 21
M  V30 21 2 10 13
M  V30 22 1 14 16
M  V30 23 1 20 21
M  V30 24 1 7 22
M  V30 25 1 10 23
M  V30 26 1 11 24
M  V30 27 1 12 25
M  V30 28 1 13 26
M  V30 29 1 14 27
M  V30 30 1 16 28
M  V30 31 1 17 29
M  V30 32 1 18 30
M  V30 33 1 19 31
M  V30 34 1 20 32
M  V30 35 1 21 33
M  V30 END BOND
M  V30 END CTAB
M  END
>  <Molecule Name>
FWEOQOXTVHGIFQ-FZMAWFKONA-M

>  <hs_clash>
10.0

>  <hs_total>
nan

>  <Total Molweight>
298.341

>  <cLogP>
0.9075

>  <H-Acceptors>
4

>  <H-Donors>
1

>  <Polar Surface Area>
77.61

>  <Non-H Atoms>
21

>  <sp3-Atoms>
2

$$$$
QDHABPUVVIONNJ-UHFFFAOYNA-N
Actelion Java MolfileCreator 2.0

  0  0  0  0  0  0              0 V3000
M  V30 BEGIN CTAB
M  V30 COUNTS 40 41 0 0 0
M  V30 BEGIN ATOM
M  V30 1 O 28.7697 4.0881 65.4264 0
M  V30 2 C 28.3165 5.0367 64.8132 0
M  V30 3 O 28.9949 6.3131 64.8116 0
M  V30 4 C 27.0211 4.9047 64.1003 0
M  V30 5 C 30.2242 6.4778 65.503 0
M  V30 6 C 26.548 5.9688 63.3338 0
M  V30 7 C 26.341 3.6999 64.2107 0
M  V30 8 C 25.3336 5.8415 62.6769 0
M  V30 9 C 25.1224 3.5294 63.5624 0
M  V30 10 N 24.7949 6.8563 61.8742 0
M  V30 11 C 24.5861 4.5709 62.8189 0
M  V30 12 C 23.4573 6.6894 61.304 0
M  V30 13 C 25.5818 8.0176 61.4757 0
M  V30 14 N 23.3565 4.5233 62.1553 0
M  V30 15 C 23.3827 5.2178 60.8855 0
M  V30 16 C 25.6052 9.0935 62.5351 0
M  V30 17 C 22.2335 4.036 62.7331 0
M  V30 18 O 21.3048 3.6017 62.0702 0
M  V30 19 C 22.048 4.0655 64.2485 0
M  V30 20 C 21.4878 2.7407 64.714 0
M  V30 21 H 30.5774 7.5125 65.3825 0
M  V30 22 H 30.0751 6.2636 66.5717 0
M  V30 23 H 30.972 5.7849 65.0909 0
M  V30 24 H 27.1203 6.8813 63.253 0
M  V30 25 H 26.7572 2.8961 64.7993 0
M  V30 26 H 24.5956 2.5899 63.6375 0
M  V30 27 H 23.3247 7.3462 60.4318 0
M  V30 28 H 22.6861 6.917 62.0547 0
M  V30 29 H 25.1489 8.4381 60.5563 0
M  V30 30 H 26.6142 7.6933 61.2801 0
M  V30 31 H 24.2641 4.929 60.2947 0
M  V30 32 H 22.4701 5.0168 60.3055 0
M  V30 33 H 26.2102 9.9421 62.1835 0
M  V30 34 H 24.5782 9.4336 62.7352 0
M  V30 35 H 26.0436 8.6886 63.459 0
M  V30 36 H 23.019 4.2438 64.7333 0
M  V30 37 H 21.3506 4.873 64.517 0
M  V30 38 H 21.3542 2.7618 65.8057 0
M  V30 39 H 20.5166 2.5627 64.2295 0
M  V30 40 H 22.1849 1.9335 64.4456 0
M  V30 END ATOM
M  V30 BEGIN BOND
M  V30 1 2 1 2
M  V30 2 1 2 3
M  V30 3 1 2 4
M  V30 4 1 3 5
M  V30 5 2 4 6
M  V30 6 1 4 7
M  V30 7 1 6 8
M  V30 8 2 7 9
M  V30 9 1 8 10
M  V30 10 2 8 11
M  V30 11 1 10 12
M  V30 12 1 10 13
M  V30 13 1 11 14
M  V30 14 1 12 15
M  V30 15 1 13 16
M  V30 16 1 14 17
M  V30 17 2 17 18
M  V30 18 1 17 19
M  V30 19 1 19 20
M  V30 20 1 9 11
M  V30 21 1 14 15
M  V30 22 1 5 21
M  V30 23 1 5 22
M  V30 24 1 5 23
M  V30 25 1 6 24
M  V30 26 1 7 25
M  V30 27 1 9 26
M  V30 28 1 12 27
M  V30 29 1 12 28
M  V30 30 1 13 29
M  V30 31 1 13 30
M  V30 32 1 15 31
M  V30 33 1 15 32
M  V30 34 1 16 33
M  V30 35 1 16 34
M  V30 36 1 16 35
M  V30 37 1 19 36
M  V30 38 1 19 37
M  V30 39 1 20 38
M  V30 40 1 20 39
M  V30 41 1 20 40
M  V30 END BOND
M  V30 END CTAB
M  END
>  <Molecule Name>
QDHABPUVVIONNJ-UHFFFAOYNA-N

>  <hs_clash>
28.0

>  <hs_total>
nan

>  <Total Molweight>
276.335

>  <cLogP>
2.0848

>  <H-Acceptors>
5

>  <H-Donors>
0

>  <Polar Surface Area>
49.85

>  <Non-H Atoms>
20

>  <sp3-Atoms>
9

$$$$
BBYDXOIZLAWGSL-YVTRMFSTNA-M
Actelion Java MolfileCreator 2.0

  0  0  0  0  0  0              0 V3000
M  V30 BEGIN CTAB
M  V30 COUNTS 14 14 0 0 0
M  V30 BEGIN ATOM
M  V30 1 F 27.8636 4.7057 65.6511 0
M  V30 2 C 26.9457 4.7688 64.6506 0
M  V30 3 C 26.7545 5.9599 64.0064 0
M  V30 4 C 26.2419 3.6456 64.3361 0
M  V30 5 C 25.8105 6.0272 62.9954 0
M  V30 6 C 25.2979 3.702 63.3314 0
M  V30 7 C 25.0731 4.8957 62.6505 0
M  V30 8 C 24.036 4.95 61.5531 0
M  V30 9 O 23.4501 6.043 61.3677 0
M  V30 10 O 23.8178 3.8994 60.8899 0 CHG=-1
M  V30 11 H 27.326 6.8326 64.2868 0
M  V30 12 H 26.4217 2.7242 64.8699 0
M  V30 13 H 25.6424 6.9587 62.475 0
M  V30 14 H 24.7358 2.8182 63.0684 0
M  V30 END ATOM
M  V30 BEGIN BOND
M  V30 1 1 1 2
M  V30 2 2 2 3
M  V30 3 1 2 4
M  V30 4 1 3 5
M  V30 5 2 4 6
M  V30 6 2 5 7
M  V30 7 1 7 8
M  V30 8 2 8 9
M  V30 9 1 8 10
M  V30 10 1 6 7
M  V30 11 1 3 11
M  V30 12 1 4 12
M  V30 13 1 5 13
M  V30 14 1 6 14
M  V30 END BOND
M  V30 END CTAB
M  END
>  <Molecule Name>
BBYDXOIZLAWGSL-YVTRMFSTNA-M

>  <hs_clash>
0.0

>  <hs_total>
nan

>  <Total Molweight>
139.105

>  <cLogP>
-0.8305

>  <H-Acceptors>
2

>  <H-Donors>
0

>  <Polar Surface Area>
40.13

>  <Non-H Atoms>
10

>  <sp3-Atoms>
1

$$$$
GRVSGGNZRNHMQI-UHFFFAOYNA-N
Actelion Java MolfileCreator 2.0

  0  0  0  0  0  0              0 V3000
M  V30 BEGIN CTAB
M  V30 COUNTS 12 12 0 0 0
M  V30 BEGIN ATOM
M  V30 1 I 27.5793 8.6826 62.9035 0
M  V30 2 C 28.8258 7.4589 64.04 0
M  V30 3 C 30.0697 7.9153 64.4801 0
M  V30 4 C 28.382 6.21 64.4017 0
M  V30 5 C 30.8752 7.0745 65.1714 0
M  V30 6 C 29.234 5.3361 65.1226 0
M  V30 7 N 30.4435 5.8385 65.5163 0
M  V30 8 O 28.9633 4.2032 65.3934 0
M  V30 9 H 30.3856 8.9269 64.2716 0
M  V30 10 H 27.4837 6.3587 65.0193 0
M  V30 11 H 28.1062 5.6899 63.4727 0
M  V30 12 H 31.8691 7.3925 65.45 0
M  V30 END ATOM
M  V30 BEGIN BOND
M  V30 1 1 1 2
M  V30 2 2 2 3
M  V30 3 1 2 4
M  V30 4 1 3 5
M  V30 5 1 4 6
M  V30 6 2 5 7
M  V30 7 2 6 8
M  V30 8 1 6 7
M  V30 9 1 3 9
M  V30 10 1 4 10
M  V30 11 1 4 11
M  V30 12 1 5 12
M  V30 END BOND
M  V30 END CTAB
M  END
>  <Molecule Name>
GRVSGGNZRNHMQI-UHFFFAOYNA-N

>  <hs_clash>
0.0

>  <hs_total>
nan

>  <Total Molweight>
220.993

>  <cLogP>
0.8216

>  <H-Acceptors>
2

>  <H-Donors>
0

>  <Polar Surface Area>
29.43

>  <Non-H Atoms>
8

>  <sp3-Atoms>
1

$$$$
RNRCAQYXOAHKGD-LNBSGDTFNA-M
Actelion Java MolfileCreator 2.0

  0  0  0  0  0  0              0 V3000
M  V30 BEGIN CTAB
M  V30 COUNTS 21 21 0 0 0
M  V30 BEGIN ATOM
M  V30 1 Br 26.4871 7.0222 64.2612 0
M  V30 2 C 26.3148 8.0227 62.7059 0
M  V30 3 C 26.0277 9.388 62.7664 0
M  V30 4 C 26.4893 7.4155 61.4784 0
M  V30 5 C 26.0184 10.1387 61.6139 0
M  V30 6 C 26.4258 8.1527 60.3175 0
M  V30 7 O 25.7507 11.4666 61.5673 0
M  V30 8 C 26.2233 9.5171 60.3451 0
M  V30 9 C 25.6476 12.1524 62.7982 0
M  V30 10 C 26.2225 10.3296 59.0973 0
M  V30 11 C 24.9077 10.6133 58.4202 0
M  V30 12 O 23.8859 10.0243 58.8137 0
M  V30 13 O 24.9329 11.4071 57.4625 0 CHG=-1
M  V30 14 H 25.8132 9.854 63.7169 0
M  V30 15 H 26.6773 6.3531 61.4286 0
M  V30 16 H 26.5365 7.6531 59.3665 0
M  V30 17 H 25.4294 13.2141 62.6101 0
M  V30 18 H 24.8364 11.7122 63.3967 0
M  V30 19 H 26.5968 12.0651 63.3471 0
M  V30 20 H 26.6761 11.3013 59.3433 0
M  V30 21 H 26.8555 9.8035 58.3681 0
M  V30 END ATOM
M  V30 BEGIN BOND
M  V30 1 1 1 2
M  V30 2 2 2 3
M  V30 3 1 2 4
M  V30 4 1 3 5
M  V30 5 2 4 6
M  V30 6 1 5 7
M  V30 7 2 5 8
M  V30 8 1 7 9
M  V30 9 1 8 10
M  V30 10 1 10 11
M  V30 11 2 11 12
M  V30 12 1 11 13
M  V30 13 1 6 8
M  V30 14 1 3 14
M  V30 15 1 4 15
M  V30 16 1 6 16
M  V30 17 1 9 17
M  V30 18 1 9 18
M  V30 19 1 9 19
M  V30 20 1 10 20
M  V30 21 1 10 21
M  V30 END BOND
M  V30 END CTAB
M  END
>  <Molecule Name>
RNRCAQYXOAHKGD-LNBSGDTFNA-M

>  <hs_clash>
0.0

>  <hs_total>
nan

>  <Total Molweight>
244.064

>  <cLogP>
-0.278

>  <H-Acceptors>
3

>  <H-Donors>
0

>  <Polar Surface Area>
49.36

>  <Non-H Atoms>
13

>  <sp3-Atoms>
4

$$$$
WRCYZEFOPRPDCR-DEUOUXLMNA-M
Actelion Java MolfileCreator 2.0

  0  0  0  0  0  0              0 V3000
M  V30 BEGIN CTAB
M  V30 COUNTS 28 29 0 0 0
M  V30 BEGIN ATOM
M  V30 1 O 28.1794 4.3578 65.7537 0
M  V30 2 C 28.169 5.4084 65.1042 0
M  V30 3 N 29.3161 6.1434 65.0372 0
M  V30 4 C 27.0283 5.9834 64.5191 0
M  V30 5 C 29.4148 7.3042 64.3555 0
M  V30 6 C 27.1428 7.1327 63.7875 0
M  V30 7 C 28.3394 7.8169 63.7116 0
M  V30 8 O 25.984 7.6143 63.2534 0
M  V30 9 C 26.0521 8.4016 62.1101 0
M  V30 10 C 26.2747 7.8356 60.8962 0
M  V30 11 C 25.7367 9.7254 62.2388 0
M  V30 12 C 26.3007 8.6405 59.7849 0
M  V30 13 C 25.7039 10.5134 61.1122 0
M  V30 14 C 25.9196 9.9666 59.8687 0
M  V30 15 C 25.8865 10.8186 58.6344 0
M  V30 16 C 24.6048 10.7547 57.8283 0
M  V30 17 O 24.5189 11.4986 56.8534 0
M  V30 18 O 23.6649 10.0161 58.1983 0 CHG=-1
M  V30 19 H 26.3243 6.1964 65.3374 0
M  V30 20 H 26.5959 5.2235 63.852 0
M  V30 21 H 30.3584 7.8282 64.3231 0
M  V30 22 H 28.4158 8.7379 63.1528 0
M  V30 23 H 26.4282 6.7705 60.8068 0
M  V30 24 H 25.5164 10.1456 63.2092 0
M  V30 25 H 26.6219 8.2344 58.8373 0
M  V30 26 H 25.5073 11.5714 61.2048 0
M  V30 27 H 26.0417 11.8637 58.9405 0
M  V30 28 H 26.7127 10.5009 57.982 0
M  V30 END ATOM
M  V30 BEGIN BOND
M  V30 1 2 1 2
M  V30 2 1 2 3
M  V30 3 1 2 4
M  V30 4 2 3 5
M  V30 5 1 4 6
M  V30 6 1 5 7
M  V30 7 1 6 8
M  V30 8 1 8 9
M  V30 9 2 9 10
M  V30 10 1 9 11
M  V30 11 1 10 12
M  V30 12 2 11 13
M  V30 13 2 12 14
M  V30 14 1 14 15
M  V30 15 1 15 16
M  V30 16 2 16 17
M  V30 17 1 16 18
M  V30 18 2 6 7
M  V30 19 1 13 14
M  V30 20 1 4 19
M  V30 21 1 4 20
M  V30 22 1 5 21
M  V30 23 1 7 22
M  V30 24 1 10 23
M  V30 25 1 11 24
M  V30 26 1 12 25
M  V30 27 1 13 26
M  V30 28 1 15 27
M  V30 29 1 15 28
M  V30 END BOND
M  V30 END CTAB
M  END
>  <Molecule Name>
WRCYZEFOPRPDCR-DEUOUXLMNA-M

>  <hs_clash>
0.0

>  <hs_total>
nan

>  <Total Molweight>
244.225

>  <cLogP>
-1.1873

>  <H-Acceptors>
5

>  <H-Donors>
0

>  <Polar Surface Area>
78.79

>  <Non-H Atoms>
18

>  <sp3-Atoms>
4

$$$$
QYXNSNJTMIEAPG-UHFFFAOYNA-N
Actelion Java MolfileCreator 2.0

  0  0  0  0  0  0              0 V3000
M  V30 BEGIN CTAB
M  V30 COUNTS 16 17 0 0 0
M  V30 BEGIN ATOM
M  V30 1 Br 28.7097 5.2345 65.6603 0
M  V30 2 C 27.8303 6.323 64.3784 0
M  V30 3 C 26.8668 5.7227 63.5593 0
M  V30 4 C 28.1389 7.6189 64.2223 0
M  V30 5 C 26.2466 6.5347 62.5665 0
M  V30 6 C 26.4907 4.3599 63.6593 0
M  V30 7 C 27.4756 8.3614 63.228 0
M  V30 8 N 26.5584 7.8535 62.4183 0
M  V30 9 N 25.3142 6.0238 61.7269 0
M  V30 10 C 25.5498 3.8761 62.8236 0
M  V30 11 C 25.0025 4.7472 61.8692 0
M  V30 12 H 28.8842 8.0851 64.8498 0
M  V30 13 H 26.9515 3.7176 64.395 0
M  V30 14 H 27.7288 9.4058 63.1186 0
M  V30 15 H 25.2265 2.8477 62.887 0
M  V30 16 H 24.2648 4.34 61.1937 0
M  V30 END ATOM
M  V30 BEGIN BOND
M  V30 1 1 1 2
M  V30 2 1 2 3
M  V30 3 2 2 4
M  V30 4 1 3 5
M  V30 5 2 3 6
M  V30 6 1 4 7
M  V30 7 1 5 8
M  V30 8 2 5 9
M  V30 9 1 6 10
M  V30 10 1 9 11
M  V30 11 2 7 8
M  V30 12 2 10 11
M  V30 13 1 4 12
M  V30 14 1 6 13
M  V30 15 1 7 14
M  V30 16 1 10 15
M  V30 17 1 11 16
M  V30 END BOND
M  V30 END CTAB
M  END
>  <Molecule Name>
QYXNSNJTMIEAPG-UHFFFAOYNA-N

>  <hs_clash>
0.0

>  <hs_total>
nan

>  <Total Molweight>
209.046

>  <cLogP>
1.9828

>  <H-Acceptors>
2

>  <H-Donors>
0

>  <Polar Surface Area>
25.78

>  <Non-H Atoms>
11

>  <sp3-Atoms>
0

$$$$
VDEKFYBSRAMPIS-UHFFFAOYNA-N
Actelion Java MolfileCreator 2.0

  0  0  0  0  0  0              0 V3000
M  V30 BEGIN CTAB
M  V30 COUNTS 34 35 0 0 0
M  V30 BEGIN ATOM
M  V30 1 O 22.7926 4.8545 62.5115 0
M  V30 2 C 23.7021 4.7151 63.3158 0
M  V30 3 N 24.9621 4.9707 62.9249 0
M  V30 4 C 23.3093 4.2544 64.7017 0
M  V30 5 C 26.0667 4.8172 63.7713 0
M  V30 6 C 25.2052 5.6795 61.6629 0
M  V30 7 C 22.2045 3.1831 64.6592 0
M  V30 8 C 26.8661 6.0548 63.8901 0
M  V30 9 C 26.5178 3.6721 64.4309 0
M  V30 10 C 25.3292 7.1253 62.1149 0
M  V30 11 N 26.3993 7.1894 63.175 0
M  V30 12 C 27.9963 6.115 64.7091 0
M  V30 13 C 27.6817 3.7837 65.2201 0
M  V30 14 C 26.9417 8.4792 63.5762 0
M  V30 15 C 28.434 4.9799 65.4079 0
M  V30 16 C 28.1794 8.7568 62.7512 0
M  V30 17 H 22.9433 5.1198 65.2739 0
M  V30 18 H 24.1943 3.8328 65.2004 0
M  V30 19 H 24.3629 5.5518 60.9671 0
M  V30 20 H 26.1324 5.3319 61.1845 0
M  V30 21 H 21.9498 2.8773 65.6848 0
M  V30 22 H 21.3113 3.5969 64.1681 0
M  V30 23 H 22.5623 2.3099 64.0946 0
M  V30 24 H 25.9932 2.7326 64.3398 0
M  V30 25 H 25.6097 7.7607 61.2619 0
M  V30 26 H 24.3708 7.4709 62.53 0
M  V30 27 H 28.5381 7.0445 64.8056 0
M  V30 28 H 28.0297 2.8931 65.7219 0
M  V30 29 H 26.1941 9.2671 63.4006 0
M  V30 30 H 27.2049 8.4553 64.644 0
M  V30 31 H 29.2977 5.0107 66.0553 0
M  V30 32 H 28.6036 9.7297 63.0413 0
M  V30 33 H 28.9226 7.9656 62.9279 0
M  V30 34 H 27.9117 8.7773 61.6845 0
M  V30 END ATOM
M  V30 BEGIN BOND
M  V30 1 2 1 2
M  V30 2 1 2 3
M  V30 3 1 2 4
M  V30 4 1 3 5
M  V30 5 1 3 6
M  V30 6 1 4 7
M  V30 7 2 5 8
M  V30 8 1 5 9
M  V30 9 1 6 10
M  V30 10 1 8 11
M  V30 11 1 8 12
M  V30 12 2 9 13
M  V30 13 1 11 14
M  V30 14 2 12 15
M  V30 15 1 14 16
M  V30 16 1 10 11
M  V30 17 1 13 15
M  V30 18 1 4 17
M  V30 19 1 4 18
M  V30 20 1 6 19
M  V30 21 1 6 20
M  V30 22 1 7 21
M  V30 23 1 7 22
M  V30 24 1 7 23
M  V30 25 1 9 24
M  V30 26 1 10 25
M  V30 27 1 10 26
M  V30 28 1 12 27
M  V30 29 1 13 28
M  V30 30 1 14 29
M  V30 31 1 14 30
M  V30 32 1 15 31
M  V30 33 1 16 32
M  V30 34 1 16 33
M  V30 35 1 16 34
M  V30 END BOND
M  V30 END CTAB
M  END
>  <Molecule Name>
VDEKFYBSRAMPIS-UHFFFAOYNA-N

>  <hs_clash>
11.0

>  <hs_total>
nan

>  <Total Molweight>
218.299

>  <cLogP>
2.1718

>  <H-Acceptors>
3

>  <H-Donors>
0

>  <Polar Surface Area>
23.55

>  <Non-H Atoms>
16

>  <sp3-Atoms>
7

$$$$
